
*** ChampSim Multicore Out-of-Order Simulator ***

Warmup Instructions: 200000000
Simulation Instructions: 1000000000
Configuration: 1
Number of CPUs: 1
LLC sets: 2048
LLC ways: 16
Off-chip DRAM Channels: 1 Width: 64-bit Data Rate: 1600 MT/s

CPU 0 runs ../ChampSim_CRC2/trace/bzip2_10M.trace.gz
Initialize LRU replacement state
Heartbeat CPU 0 instructions: 1000002 cycles: 454321 heartbeat IPC: 2.20109 cumulative IPC: 2.20109 (Simulation time: 0 hr 0 min 2 sec) 
Heartbeat CPU 0 instructions: 2000001 cycles: 907396 heartbeat IPC: 2.20714 cumulative IPC: 2.20411 (Simulation time: 0 hr 0 min 4 sec) 
Heartbeat CPU 0 instructions: 3000003 cycles: 1353173 heartbeat IPC: 2.24328 cumulative IPC: 2.21701 (Simulation time: 0 hr 0 min 6 sec) 
Heartbeat CPU 0 instructions: 4000000 cycles: 1808047 heartbeat IPC: 2.1984 cumulative IPC: 2.21233 (Simulation time: 0 hr 0 min 8 sec) 
Heartbeat CPU 0 instructions: 5000000 cycles: 2187400 heartbeat IPC: 2.63607 cumulative IPC: 2.28582 (Simulation time: 0 hr 0 min 10 sec) 
Heartbeat CPU 0 instructions: 6000002 cycles: 2642707 heartbeat IPC: 2.19632 cumulative IPC: 2.2704 (Simulation time: 0 hr 0 min 12 sec) 
Heartbeat CPU 0 instructions: 7000000 cycles: 3183139 heartbeat IPC: 1.85037 cumulative IPC: 2.19909 (Simulation time: 0 hr 0 min 15 sec) 
Heartbeat CPU 0 instructions: 8000000 cycles: 3626070 heartbeat IPC: 2.25769 cumulative IPC: 2.20625 (Simulation time: 0 hr 0 min 17 sec) 
Heartbeat CPU 0 instructions: 9000000 cycles: 4101139 heartbeat IPC: 2.10496 cumulative IPC: 2.19451 (Simulation time: 0 hr 0 min 19 sec) 
*** Reached end of trace for Core: 0 Repeating trace: ../ChampSim_CRC2/trace/bzip2_10M.trace.gz
Heartbeat CPU 0 instructions: 10000000 cycles: 4541458 heartbeat IPC: 2.27108 cumulative IPC: 2.20194 (Simulation time: 0 hr 0 min 21 sec) 
Heartbeat CPU 0 instructions: 11000002 cycles: 4995109 heartbeat IPC: 2.20434 cumulative IPC: 2.20215 (Simulation time: 0 hr 0 min 23 sec) 
Heartbeat CPU 0 instructions: 12000000 cycles: 5448236 heartbeat IPC: 2.20688 cumulative IPC: 2.20255 (Simulation time: 0 hr 0 min 25 sec) 
Heartbeat CPU 0 instructions: 13000002 cycles: 5893903 heartbeat IPC: 2.24383 cumulative IPC: 2.20567 (Simulation time: 0 hr 0 min 27 sec) 
Heartbeat CPU 0 instructions: 14000001 cycles: 6348394 heartbeat IPC: 2.20026 cumulative IPC: 2.20528 (Simulation time: 0 hr 0 min 29 sec) 
Heartbeat CPU 0 instructions: 15000003 cycles: 6727460 heartbeat IPC: 2.63807 cumulative IPC: 2.22967 (Simulation time: 0 hr 0 min 31 sec) 
Heartbeat CPU 0 instructions: 16000000 cycles: 7182505 heartbeat IPC: 2.19758 cumulative IPC: 2.22764 (Simulation time: 0 hr 0 min 33 sec) 
Heartbeat CPU 0 instructions: 17000000 cycles: 7723791 heartbeat IPC: 1.84745 cumulative IPC: 2.20099 (Simulation time: 0 hr 0 min 35 sec) 
Heartbeat CPU 0 instructions: 18000000 cycles: 8170468 heartbeat IPC: 2.23875 cumulative IPC: 2.20306 (Simulation time: 0 hr 0 min 37 sec) 
Heartbeat CPU 0 instructions: 19000000 cycles: 8644923 heartbeat IPC: 2.10768 cumulative IPC: 2.19782 (Simulation time: 0 hr 0 min 39 sec) 
*** Reached end of trace for Core: 0 Repeating trace: ../ChampSim_CRC2/trace/bzip2_10M.trace.gz
Heartbeat CPU 0 instructions: 20000000 cycles: 9085258 heartbeat IPC: 2.271 cumulative IPC: 2.20137 (Simulation time: 0 hr 0 min 42 sec) 
Heartbeat CPU 0 instructions: 21000002 cycles: 9539787 heartbeat IPC: 2.20008 cumulative IPC: 2.20131 (Simulation time: 0 hr 0 min 44 sec) 
Heartbeat CPU 0 instructions: 22000001 cycles: 9993045 heartbeat IPC: 2.20625 cumulative IPC: 2.20153 (Simulation time: 0 hr 0 min 46 sec) 
Heartbeat CPU 0 instructions: 23000003 cycles: 10438942 heartbeat IPC: 2.24267 cumulative IPC: 2.20329 (Simulation time: 0 hr 0 min 48 sec) 
Heartbeat CPU 0 instructions: 24000000 cycles: 10893750 heartbeat IPC: 2.19872 cumulative IPC: 2.2031 (Simulation time: 0 hr 0 min 50 sec) 
Heartbeat CPU 0 instructions: 25000000 cycles: 11273159 heartbeat IPC: 2.63568 cumulative IPC: 2.21766 (Simulation time: 0 hr 0 min 52 sec) 
Heartbeat CPU 0 instructions: 26000002 cycles: 11728500 heartbeat IPC: 2.19616 cumulative IPC: 2.21682 (Simulation time: 0 hr 0 min 54 sec) 
Heartbeat CPU 0 instructions: 27000000 cycles: 12269014 heartbeat IPC: 1.85009 cumulative IPC: 2.20067 (Simulation time: 0 hr 0 min 56 sec) 
Heartbeat CPU 0 instructions: 28000000 cycles: 12712003 heartbeat IPC: 2.25739 cumulative IPC: 2.20264 (Simulation time: 0 hr 0 min 58 sec) 
Heartbeat CPU 0 instructions: 29000000 cycles: 13187079 heartbeat IPC: 2.10493 cumulative IPC: 2.19912 (Simulation time: 0 hr 1 min 0 sec) 
*** Reached end of trace for Core: 0 Repeating trace: ../ChampSim_CRC2/trace/bzip2_10M.trace.gz
Heartbeat CPU 0 instructions: 30000000 cycles: 13627402 heartbeat IPC: 2.27106 cumulative IPC: 2.20145 (Simulation time: 0 hr 1 min 2 sec) 
Heartbeat CPU 0 instructions: 31000002 cycles: 14081053 heartbeat IPC: 2.20434 cumulative IPC: 2.20154 (Simulation time: 0 hr 1 min 4 sec) 
Heartbeat CPU 0 instructions: 32000000 cycles: 14534180 heartbeat IPC: 2.20688 cumulative IPC: 2.20171 (Simulation time: 0 hr 1 min 6 sec) 
Heartbeat CPU 0 instructions: 33000002 cycles: 14979847 heartbeat IPC: 2.24383 cumulative IPC: 2.20296 (Simulation time: 0 hr 1 min 8 sec) 
Heartbeat CPU 0 instructions: 34000001 cycles: 15434338 heartbeat IPC: 2.20026 cumulative IPC: 2.20288 (Simulation time: 0 hr 1 min 10 sec) 
Heartbeat CPU 0 instructions: 35000003 cycles: 15813404 heartbeat IPC: 2.63807 cumulative IPC: 2.21331 (Simulation time: 0 hr 1 min 12 sec) 
Heartbeat CPU 0 instructions: 36000000 cycles: 16268449 heartbeat IPC: 2.19758 cumulative IPC: 2.21287 (Simulation time: 0 hr 1 min 14 sec) 
Heartbeat CPU 0 instructions: 37000000 cycles: 16809735 heartbeat IPC: 1.84745 cumulative IPC: 2.20111 (Simulation time: 0 hr 1 min 16 sec) 
Heartbeat CPU 0 instructions: 38000000 cycles: 17256412 heartbeat IPC: 2.23875 cumulative IPC: 2.20208 (Simulation time: 0 hr 1 min 18 sec) 
Heartbeat CPU 0 instructions: 39000000 cycles: 17730867 heartbeat IPC: 2.10768 cumulative IPC: 2.19955 (Simulation time: 0 hr 1 min 21 sec) 
*** Reached end of trace for Core: 0 Repeating trace: ../ChampSim_CRC2/trace/bzip2_10M.trace.gz
Heartbeat CPU 0 instructions: 40000000 cycles: 18171202 heartbeat IPC: 2.271 cumulative IPC: 2.20129 (Simulation time: 0 hr 1 min 23 sec) 
Heartbeat CPU 0 instructions: 41000002 cycles: 18625731 heartbeat IPC: 2.20008 cumulative IPC: 2.20126 (Simulation time: 0 hr 1 min 25 sec) 
Heartbeat CPU 0 instructions: 42000001 cycles: 19078989 heartbeat IPC: 2.20625 cumulative IPC: 2.20137 (Simulation time: 0 hr 1 min 27 sec) 
Heartbeat CPU 0 instructions: 43000003 cycles: 19524886 heartbeat IPC: 2.24267 cumulative IPC: 2.20232 (Simulation time: 0 hr 1 min 29 sec) 
Heartbeat CPU 0 instructions: 44000000 cycles: 19979694 heartbeat IPC: 2.19872 cumulative IPC: 2.20224 (Simulation time: 0 hr 1 min 31 sec) 
Heartbeat CPU 0 instructions: 45000000 cycles: 20359103 heartbeat IPC: 2.63568 cumulative IPC: 2.21031 (Simulation time: 0 hr 1 min 33 sec) 
Heartbeat CPU 0 instructions: 46000002 cycles: 20814444 heartbeat IPC: 2.19616 cumulative IPC: 2.21 (Simulation time: 0 hr 1 min 35 sec) 
Heartbeat CPU 0 instructions: 47000000 cycles: 21354958 heartbeat IPC: 1.85009 cumulative IPC: 2.20089 (Simulation time: 0 hr 1 min 37 sec) 
Heartbeat CPU 0 instructions: 48000000 cycles: 21797947 heartbeat IPC: 2.25739 cumulative IPC: 2.20204 (Simulation time: 0 hr 1 min 39 sec) 
Heartbeat CPU 0 instructions: 49000000 cycles: 22273023 heartbeat IPC: 2.10493 cumulative IPC: 2.19997 (Simulation time: 0 hr 1 min 41 sec) 
*** Reached end of trace for Core: 0 Repeating trace: ../ChampSim_CRC2/trace/bzip2_10M.trace.gz
Heartbeat CPU 0 instructions: 50000000 cycles: 22713346 heartbeat IPC: 2.27106 cumulative IPC: 2.20135 (Simulation time: 0 hr 1 min 43 sec) 
Heartbeat CPU 0 instructions: 51000002 cycles: 23166997 heartbeat IPC: 2.20434 cumulative IPC: 2.20141 (Simulation time: 0 hr 1 min 45 sec) 
Heartbeat CPU 0 instructions: 52000000 cycles: 23620124 heartbeat IPC: 2.20688 cumulative IPC: 2.20151 (Simulation time: 0 hr 1 min 47 sec) 
Heartbeat CPU 0 instructions: 53000002 cycles: 24065791 heartbeat IPC: 2.24383 cumulative IPC: 2.2023 (Simulation time: 0 hr 1 min 50 sec) 
Heartbeat CPU 0 instructions: 54000001 cycles: 24520282 heartbeat IPC: 2.20026 cumulative IPC: 2.20226 (Simulation time: 0 hr 1 min 52 sec) 
Heartbeat CPU 0 instructions: 55000003 cycles: 24899348 heartbeat IPC: 2.63807 cumulative IPC: 2.20889 (Simulation time: 0 hr 1 min 53 sec) 
Heartbeat CPU 0 instructions: 56000000 cycles: 25354393 heartbeat IPC: 2.19758 cumulative IPC: 2.20869 (Simulation time: 0 hr 1 min 55 sec) 
Heartbeat CPU 0 instructions: 57000000 cycles: 25895679 heartbeat IPC: 1.84745 cumulative IPC: 2.20114 (Simulation time: 0 hr 1 min 58 sec) 
Heartbeat CPU 0 instructions: 58000000 cycles: 26342356 heartbeat IPC: 2.23875 cumulative IPC: 2.20178 (Simulation time: 0 hr 2 min 0 sec) 
Heartbeat CPU 0 instructions: 59000000 cycles: 26816811 heartbeat IPC: 2.10768 cumulative IPC: 2.20011 (Simulation time: 0 hr 2 min 2 sec) 
*** Reached end of trace for Core: 0 Repeating trace: ../ChampSim_CRC2/trace/bzip2_10M.trace.gz
Heartbeat CPU 0 instructions: 60000000 cycles: 27257146 heartbeat IPC: 2.271 cumulative IPC: 2.20126 (Simulation time: 0 hr 2 min 4 sec) 
Heartbeat CPU 0 instructions: 61000002 cycles: 27711675 heartbeat IPC: 2.20008 cumulative IPC: 2.20124 (Simulation time: 0 hr 2 min 6 sec) 
Heartbeat CPU 0 instructions: 62000001 cycles: 28164933 heartbeat IPC: 2.20625 cumulative IPC: 2.20132 (Simulation time: 0 hr 2 min 8 sec) 
Heartbeat CPU 0 instructions: 63000003 cycles: 28610830 heartbeat IPC: 2.24267 cumulative IPC: 2.20196 (Simulation time: 0 hr 2 min 10 sec) 
Heartbeat CPU 0 instructions: 64000000 cycles: 29065638 heartbeat IPC: 2.19872 cumulative IPC: 2.20191 (Simulation time: 0 hr 2 min 12 sec) 
Heartbeat CPU 0 instructions: 65000000 cycles: 29445047 heartbeat IPC: 2.63568 cumulative IPC: 2.2075 (Simulation time: 0 hr 2 min 14 sec) 
Heartbeat CPU 0 instructions: 66000002 cycles: 29900388 heartbeat IPC: 2.19616 cumulative IPC: 2.20733 (Simulation time: 0 hr 2 min 16 sec) 
Heartbeat CPU 0 instructions: 67000000 cycles: 30440902 heartbeat IPC: 1.85009 cumulative IPC: 2.20099 (Simulation time: 0 hr 2 min 18 sec) 
Heartbeat CPU 0 instructions: 68000000 cycles: 30883891 heartbeat IPC: 2.25739 cumulative IPC: 2.2018 (Simulation time: 0 hr 2 min 20 sec) 
Heartbeat CPU 0 instructions: 69000000 cycles: 31358967 heartbeat IPC: 2.10493 cumulative IPC: 2.20033 (Simulation time: 0 hr 2 min 23 sec) 
*** Reached end of trace for Core: 0 Repeating trace: ../ChampSim_CRC2/trace/bzip2_10M.trace.gz
Heartbeat CPU 0 instructions: 70000000 cycles: 31799290 heartbeat IPC: 2.27106 cumulative IPC: 2.20131 (Simulation time: 0 hr 2 min 25 sec) 
Heartbeat CPU 0 instructions: 71000002 cycles: 32252941 heartbeat IPC: 2.20434 cumulative IPC: 2.20135 (Simulation time: 0 hr 2 min 27 sec) 
Heartbeat CPU 0 instructions: 72000000 cycles: 32706068 heartbeat IPC: 2.20688 cumulative IPC: 2.20143 (Simulation time: 0 hr 2 min 29 sec) 
Heartbeat CPU 0 instructions: 73000002 cycles: 33151735 heartbeat IPC: 2.24383 cumulative IPC: 2.202 (Simulation time: 0 hr 2 min 31 sec) 
Heartbeat CPU 0 instructions: 74000001 cycles: 33606226 heartbeat IPC: 2.20026 cumulative IPC: 2.20197 (Simulation time: 0 hr 2 min 33 sec) 
Heartbeat CPU 0 instructions: 75000003 cycles: 33985292 heartbeat IPC: 2.63807 cumulative IPC: 2.20684 (Simulation time: 0 hr 2 min 35 sec) 
Heartbeat CPU 0 instructions: 76000000 cycles: 34440337 heartbeat IPC: 2.19758 cumulative IPC: 2.20671 (Simulation time: 0 hr 2 min 37 sec) 
Heartbeat CPU 0 instructions: 77000000 cycles: 34981623 heartbeat IPC: 1.84745 cumulative IPC: 2.20116 (Simulation time: 0 hr 2 min 39 sec) 
Heartbeat CPU 0 instructions: 78000000 cycles: 35428300 heartbeat IPC: 2.23875 cumulative IPC: 2.20163 (Simulation time: 0 hr 2 min 41 sec) 
Heartbeat CPU 0 instructions: 79000000 cycles: 35902755 heartbeat IPC: 2.10768 cumulative IPC: 2.20039 (Simulation time: 0 hr 2 min 43 sec) 
*** Reached end of trace for Core: 0 Repeating trace: ../ChampSim_CRC2/trace/bzip2_10M.trace.gz
Heartbeat CPU 0 instructions: 80000000 cycles: 36343090 heartbeat IPC: 2.271 cumulative IPC: 2.20124 (Simulation time: 0 hr 2 min 45 sec) 
Heartbeat CPU 0 instructions: 81000002 cycles: 36797619 heartbeat IPC: 2.20008 cumulative IPC: 2.20123 (Simulation time: 0 hr 2 min 47 sec) 
Heartbeat CPU 0 instructions: 82000001 cycles: 37250877 heartbeat IPC: 2.20625 cumulative IPC: 2.20129 (Simulation time: 0 hr 2 min 49 sec) 
Heartbeat CPU 0 instructions: 83000003 cycles: 37696774 heartbeat IPC: 2.24267 cumulative IPC: 2.20178 (Simulation time: 0 hr 2 min 51 sec) 
Heartbeat CPU 0 instructions: 84000000 cycles: 38151582 heartbeat IPC: 2.19872 cumulative IPC: 2.20174 (Simulation time: 0 hr 2 min 53 sec) 
Heartbeat CPU 0 instructions: 85000000 cycles: 38530991 heartbeat IPC: 2.63568 cumulative IPC: 2.20602 (Simulation time: 0 hr 2 min 55 sec) 
Heartbeat CPU 0 instructions: 86000002 cycles: 38986332 heartbeat IPC: 2.19616 cumulative IPC: 2.2059 (Simulation time: 0 hr 2 min 57 sec) 
Heartbeat CPU 0 instructions: 87000000 cycles: 39526846 heartbeat IPC: 1.85009 cumulative IPC: 2.20104 (Simulation time: 0 hr 3 min 0 sec) 
Heartbeat CPU 0 instructions: 88000000 cycles: 39969835 heartbeat IPC: 2.25739 cumulative IPC: 2.20166 (Simulation time: 0 hr 3 min 1 sec) 
Heartbeat CPU 0 instructions: 89000000 cycles: 40444911 heartbeat IPC: 2.10493 cumulative IPC: 2.20052 (Simulation time: 0 hr 3 min 4 sec) 
*** Reached end of trace for Core: 0 Repeating trace: ../ChampSim_CRC2/trace/bzip2_10M.trace.gz
Heartbeat CPU 0 instructions: 90000000 cycles: 40885234 heartbeat IPC: 2.27106 cumulative IPC: 2.20128 (Simulation time: 0 hr 3 min 6 sec) 
Heartbeat CPU 0 instructions: 91000002 cycles: 41338885 heartbeat IPC: 2.20434 cumulative IPC: 2.20132 (Simulation time: 0 hr 3 min 8 sec) 
Heartbeat CPU 0 instructions: 92000000 cycles: 41792012 heartbeat IPC: 2.20688 cumulative IPC: 2.20138 (Simulation time: 0 hr 3 min 10 sec) 
Heartbeat CPU 0 instructions: 93000002 cycles: 42237679 heartbeat IPC: 2.24383 cumulative IPC: 2.20183 (Simulation time: 0 hr 3 min 12 sec) 
Heartbeat CPU 0 instructions: 94000001 cycles: 42692170 heartbeat IPC: 2.20026 cumulative IPC: 2.20181 (Simulation time: 0 hr 3 min 14 sec) 
Heartbeat CPU 0 instructions: 95000003 cycles: 43071236 heartbeat IPC: 2.63807 cumulative IPC: 2.20565 (Simulation time: 0 hr 3 min 16 sec) 
Heartbeat CPU 0 instructions: 96000000 cycles: 43526281 heartbeat IPC: 2.19758 cumulative IPC: 2.20556 (Simulation time: 0 hr 3 min 18 sec) 
Heartbeat CPU 0 instructions: 97000000 cycles: 44067567 heartbeat IPC: 1.84745 cumulative IPC: 2.20117 (Simulation time: 0 hr 3 min 20 sec) 
Heartbeat CPU 0 instructions: 98000000 cycles: 44514244 heartbeat IPC: 2.23875 cumulative IPC: 2.20154 (Simulation time: 0 hr 3 min 22 sec) 
Heartbeat CPU 0 instructions: 99000000 cycles: 44988699 heartbeat IPC: 2.10768 cumulative IPC: 2.20055 (Simulation time: 0 hr 3 min 24 sec) 
*** Reached end of trace for Core: 0 Repeating trace: ../ChampSim_CRC2/trace/bzip2_10M.trace.gz
Heartbeat CPU 0 instructions: 100000000 cycles: 45429034 heartbeat IPC: 2.271 cumulative IPC: 2.20124 (Simulation time: 0 hr 3 min 26 sec) 
Heartbeat CPU 0 instructions: 101000002 cycles: 45883563 heartbeat IPC: 2.20008 cumulative IPC: 2.20122 (Simulation time: 0 hr 3 min 28 sec) 
Heartbeat CPU 0 instructions: 102000001 cycles: 46336821 heartbeat IPC: 2.20625 cumulative IPC: 2.20127 (Simulation time: 0 hr 3 min 30 sec) 
Heartbeat CPU 0 instructions: 103000003 cycles: 46782718 heartbeat IPC: 2.24267 cumulative IPC: 2.20167 (Simulation time: 0 hr 3 min 32 sec) 
Heartbeat CPU 0 instructions: 104000000 cycles: 47237526 heartbeat IPC: 2.19872 cumulative IPC: 2.20164 (Simulation time: 0 hr 3 min 35 sec) 
Heartbeat CPU 0 instructions: 105000000 cycles: 47616935 heartbeat IPC: 2.63568 cumulative IPC: 2.2051 (Simulation time: 0 hr 3 min 36 sec) 
Heartbeat CPU 0 instructions: 106000002 cycles: 48072276 heartbeat IPC: 2.19616 cumulative IPC: 2.20501 (Simulation time: 0 hr 3 min 38 sec) 
Heartbeat CPU 0 instructions: 107000000 cycles: 48612790 heartbeat IPC: 1.85009 cumulative IPC: 2.20107 (Simulation time: 0 hr 3 min 41 sec) 
Heartbeat CPU 0 instructions: 108000000 cycles: 49055779 heartbeat IPC: 2.25739 cumulative IPC: 2.20158 (Simulation time: 0 hr 3 min 43 sec) 
Heartbeat CPU 0 instructions: 109000000 cycles: 49530855 heartbeat IPC: 2.10493 cumulative IPC: 2.20065 (Simulation time: 0 hr 3 min 45 sec) 
*** Reached end of trace for Core: 0 Repeating trace: ../ChampSim_CRC2/trace/bzip2_10M.trace.gz
Heartbeat CPU 0 instructions: 110000000 cycles: 49971178 heartbeat IPC: 2.27106 cumulative IPC: 2.20127 (Simulation time: 0 hr 3 min 47 sec) 
Heartbeat CPU 0 instructions: 111000002 cycles: 50424829 heartbeat IPC: 2.20434 cumulative IPC: 2.2013 (Simulation time: 0 hr 3 min 49 sec) 
Heartbeat CPU 0 instructions: 112000000 cycles: 50877956 heartbeat IPC: 2.20688 cumulative IPC: 2.20135 (Simulation time: 0 hr 3 min 51 sec) 
Heartbeat CPU 0 instructions: 113000002 cycles: 51323623 heartbeat IPC: 2.24383 cumulative IPC: 2.20172 (Simulation time: 0 hr 3 min 53 sec) 
Heartbeat CPU 0 instructions: 114000001 cycles: 51778114 heartbeat IPC: 2.20026 cumulative IPC: 2.2017 (Simulation time: 0 hr 3 min 55 sec) 
Heartbeat CPU 0 instructions: 115000003 cycles: 52157180 heartbeat IPC: 2.63807 cumulative IPC: 2.20487 (Simulation time: 0 hr 3 min 57 sec) 
Heartbeat CPU 0 instructions: 116000000 cycles: 52612225 heartbeat IPC: 2.19758 cumulative IPC: 2.20481 (Simulation time: 0 hr 3 min 59 sec) 
Heartbeat CPU 0 instructions: 117000000 cycles: 53153511 heartbeat IPC: 1.84745 cumulative IPC: 2.20117 (Simulation time: 0 hr 4 min 1 sec) 
Heartbeat CPU 0 instructions: 118000000 cycles: 53600188 heartbeat IPC: 2.23875 cumulative IPC: 2.20148 (Simulation time: 0 hr 4 min 3 sec) 
Heartbeat CPU 0 instructions: 119000000 cycles: 54074643 heartbeat IPC: 2.10768 cumulative IPC: 2.20066 (Simulation time: 0 hr 4 min 5 sec) 
*** Reached end of trace for Core: 0 Repeating trace: ../ChampSim_CRC2/trace/bzip2_10M.trace.gz
Heartbeat CPU 0 instructions: 120000000 cycles: 54514978 heartbeat IPC: 2.271 cumulative IPC: 2.20123 (Simulation time: 0 hr 4 min 7 sec) 
Heartbeat CPU 0 instructions: 121000002 cycles: 54969507 heartbeat IPC: 2.20008 cumulative IPC: 2.20122 (Simulation time: 0 hr 4 min 9 sec) 
Heartbeat CPU 0 instructions: 122000001 cycles: 55422765 heartbeat IPC: 2.20625 cumulative IPC: 2.20126 (Simulation time: 0 hr 4 min 12 sec) 
Heartbeat CPU 0 instructions: 123000003 cycles: 55868662 heartbeat IPC: 2.24267 cumulative IPC: 2.20159 (Simulation time: 0 hr 4 min 14 sec) 
Heartbeat CPU 0 instructions: 124000000 cycles: 56323470 heartbeat IPC: 2.19872 cumulative IPC: 2.20157 (Simulation time: 0 hr 4 min 16 sec) 
Heartbeat CPU 0 instructions: 125000000 cycles: 56702879 heartbeat IPC: 2.63568 cumulative IPC: 2.20447 (Simulation time: 0 hr 4 min 18 sec) 
Heartbeat CPU 0 instructions: 126000002 cycles: 57158220 heartbeat IPC: 2.19616 cumulative IPC: 2.20441 (Simulation time: 0 hr 4 min 20 sec) 
Heartbeat CPU 0 instructions: 127000000 cycles: 57698734 heartbeat IPC: 1.85009 cumulative IPC: 2.20109 (Simulation time: 0 hr 4 min 22 sec) 
Heartbeat CPU 0 instructions: 128000000 cycles: 58141723 heartbeat IPC: 2.25739 cumulative IPC: 2.20152 (Simulation time: 0 hr 4 min 24 sec) 
Heartbeat CPU 0 instructions: 129000000 cycles: 58616799 heartbeat IPC: 2.10493 cumulative IPC: 2.20073 (Simulation time: 0 hr 4 min 26 sec) 
*** Reached end of trace for Core: 0 Repeating trace: ../ChampSim_CRC2/trace/bzip2_10M.trace.gz
Heartbeat CPU 0 instructions: 130000000 cycles: 59057122 heartbeat IPC: 2.27106 cumulative IPC: 2.20126 (Simulation time: 0 hr 4 min 28 sec) 
Heartbeat CPU 0 instructions: 131000002 cycles: 59510773 heartbeat IPC: 2.20434 cumulative IPC: 2.20128 (Simulation time: 0 hr 4 min 30 sec) 
Heartbeat CPU 0 instructions: 132000000 cycles: 59963900 heartbeat IPC: 2.20688 cumulative IPC: 2.20132 (Simulation time: 0 hr 4 min 32 sec) 
Heartbeat CPU 0 instructions: 133000002 cycles: 60409567 heartbeat IPC: 2.24383 cumulative IPC: 2.20164 (Simulation time: 0 hr 4 min 34 sec) 
Heartbeat CPU 0 instructions: 134000001 cycles: 60864058 heartbeat IPC: 2.20026 cumulative IPC: 2.20163 (Simulation time: 0 hr 4 min 36 sec) 
Heartbeat CPU 0 instructions: 135000003 cycles: 61243124 heartbeat IPC: 2.63807 cumulative IPC: 2.20433 (Simulation time: 0 hr 4 min 38 sec) 
Heartbeat CPU 0 instructions: 136000000 cycles: 61698169 heartbeat IPC: 2.19758 cumulative IPC: 2.20428 (Simulation time: 0 hr 4 min 40 sec) 
Heartbeat CPU 0 instructions: 137000000 cycles: 62239455 heartbeat IPC: 1.84745 cumulative IPC: 2.20118 (Simulation time: 0 hr 4 min 42 sec) 
Heartbeat CPU 0 instructions: 138000000 cycles: 62686132 heartbeat IPC: 2.23875 cumulative IPC: 2.20144 (Simulation time: 0 hr 4 min 44 sec) 
Heartbeat CPU 0 instructions: 139000000 cycles: 63160587 heartbeat IPC: 2.10768 cumulative IPC: 2.20074 (Simulation time: 0 hr 4 min 47 sec) 
*** Reached end of trace for Core: 0 Repeating trace: ../ChampSim_CRC2/trace/bzip2_10M.trace.gz
Heartbeat CPU 0 instructions: 140000000 cycles: 63600922 heartbeat IPC: 2.271 cumulative IPC: 2.20123 (Simulation time: 0 hr 4 min 49 sec) 
Heartbeat CPU 0 instructions: 141000002 cycles: 64055451 heartbeat IPC: 2.20008 cumulative IPC: 2.20122 (Simulation time: 0 hr 4 min 51 sec) 
Heartbeat CPU 0 instructions: 142000001 cycles: 64508709 heartbeat IPC: 2.20625 cumulative IPC: 2.20125 (Simulation time: 0 hr 4 min 53 sec) 
Heartbeat CPU 0 instructions: 143000003 cycles: 64954606 heartbeat IPC: 2.24267 cumulative IPC: 2.20154 (Simulation time: 0 hr 4 min 55 sec) 
Heartbeat CPU 0 instructions: 144000000 cycles: 65409414 heartbeat IPC: 2.19872 cumulative IPC: 2.20152 (Simulation time: 0 hr 4 min 57 sec) 
Heartbeat CPU 0 instructions: 145000000 cycles: 65788823 heartbeat IPC: 2.63568 cumulative IPC: 2.20402 (Simulation time: 0 hr 4 min 59 sec) 
Heartbeat CPU 0 instructions: 146000002 cycles: 66244164 heartbeat IPC: 2.19616 cumulative IPC: 2.20397 (Simulation time: 0 hr 5 min 1 sec) 
Heartbeat CPU 0 instructions: 147000000 cycles: 66784678 heartbeat IPC: 1.85009 cumulative IPC: 2.2011 (Simulation time: 0 hr 5 min 3 sec) 
Heartbeat CPU 0 instructions: 148000000 cycles: 67227667 heartbeat IPC: 2.25739 cumulative IPC: 2.20147 (Simulation time: 0 hr 5 min 5 sec) 
Heartbeat CPU 0 instructions: 149000000 cycles: 67702743 heartbeat IPC: 2.10493 cumulative IPC: 2.2008 (Simulation time: 0 hr 5 min 7 sec) 
*** Reached end of trace for Core: 0 Repeating trace: ../ChampSim_CRC2/trace/bzip2_10M.trace.gz
Heartbeat CPU 0 instructions: 150000000 cycles: 68143066 heartbeat IPC: 2.27106 cumulative IPC: 2.20125 (Simulation time: 0 hr 5 min 9 sec) 
Heartbeat CPU 0 instructions: 151000002 cycles: 68596717 heartbeat IPC: 2.20434 cumulative IPC: 2.20127 (Simulation time: 0 hr 5 min 11 sec) 
Heartbeat CPU 0 instructions: 152000000 cycles: 69049844 heartbeat IPC: 2.20688 cumulative IPC: 2.20131 (Simulation time: 0 hr 5 min 13 sec) 
Heartbeat CPU 0 instructions: 153000002 cycles: 69495511 heartbeat IPC: 2.24383 cumulative IPC: 2.20158 (Simulation time: 0 hr 5 min 15 sec) 
Heartbeat CPU 0 instructions: 154000001 cycles: 69950002 heartbeat IPC: 2.20026 cumulative IPC: 2.20157 (Simulation time: 0 hr 5 min 18 sec) 
Heartbeat CPU 0 instructions: 155000003 cycles: 70329068 heartbeat IPC: 2.63807 cumulative IPC: 2.20393 (Simulation time: 0 hr 5 min 19 sec) 
Heartbeat CPU 0 instructions: 156000000 cycles: 70784113 heartbeat IPC: 2.19758 cumulative IPC: 2.20388 (Simulation time: 0 hr 5 min 21 sec) 
Heartbeat CPU 0 instructions: 157000000 cycles: 71325399 heartbeat IPC: 1.84745 cumulative IPC: 2.20118 (Simulation time: 0 hr 5 min 24 sec) 
Heartbeat CPU 0 instructions: 158000000 cycles: 71772076 heartbeat IPC: 2.23875 cumulative IPC: 2.20141 (Simulation time: 0 hr 5 min 26 sec) 
Heartbeat CPU 0 instructions: 159000000 cycles: 72246531 heartbeat IPC: 2.10768 cumulative IPC: 2.2008 (Simulation time: 0 hr 5 min 28 sec) 
*** Reached end of trace for Core: 0 Repeating trace: ../ChampSim_CRC2/trace/bzip2_10M.trace.gz
Heartbeat CPU 0 instructions: 160000000 cycles: 72686866 heartbeat IPC: 2.271 cumulative IPC: 2.20122 (Simulation time: 0 hr 5 min 30 sec) 
Heartbeat CPU 0 instructions: 161000002 cycles: 73141395 heartbeat IPC: 2.20008 cumulative IPC: 2.20122 (Simulation time: 0 hr 5 min 32 sec) 
Heartbeat CPU 0 instructions: 162000001 cycles: 73594653 heartbeat IPC: 2.20625 cumulative IPC: 2.20125 (Simulation time: 0 hr 5 min 34 sec) 
Heartbeat CPU 0 instructions: 163000003 cycles: 74040550 heartbeat IPC: 2.24267 cumulative IPC: 2.2015 (Simulation time: 0 hr 5 min 36 sec) 
Heartbeat CPU 0 instructions: 164000000 cycles: 74495358 heartbeat IPC: 2.19872 cumulative IPC: 2.20148 (Simulation time: 0 hr 5 min 38 sec) 
Heartbeat CPU 0 instructions: 165000000 cycles: 74874767 heartbeat IPC: 2.63568 cumulative IPC: 2.20368 (Simulation time: 0 hr 5 min 40 sec) 
Heartbeat CPU 0 instructions: 166000002 cycles: 75330108 heartbeat IPC: 2.19616 cumulative IPC: 2.20363 (Simulation time: 0 hr 5 min 42 sec) 
Heartbeat CPU 0 instructions: 167000000 cycles: 75870622 heartbeat IPC: 1.85009 cumulative IPC: 2.20112 (Simulation time: 0 hr 5 min 44 sec) 
Heartbeat CPU 0 instructions: 168000000 cycles: 76313611 heartbeat IPC: 2.25739 cumulative IPC: 2.20144 (Simulation time: 0 hr 5 min 46 sec) 
Heartbeat CPU 0 instructions: 169000000 cycles: 76788687 heartbeat IPC: 2.10493 cumulative IPC: 2.20085 (Simulation time: 0 hr 5 min 48 sec) 
*** Reached end of trace for Core: 0 Repeating trace: ../ChampSim_CRC2/trace/bzip2_10M.trace.gz
Heartbeat CPU 0 instructions: 170000000 cycles: 77229010 heartbeat IPC: 2.27106 cumulative IPC: 2.20125 (Simulation time: 0 hr 5 min 50 sec) 
Heartbeat CPU 0 instructions: 171000002 cycles: 77682661 heartbeat IPC: 2.20434 cumulative IPC: 2.20126 (Simulation time: 0 hr 5 min 52 sec) 
Heartbeat CPU 0 instructions: 172000000 cycles: 78135788 heartbeat IPC: 2.20688 cumulative IPC: 2.2013 (Simulation time: 0 hr 5 min 55 sec) 
Heartbeat CPU 0 instructions: 173000002 cycles: 78581455 heartbeat IPC: 2.24383 cumulative IPC: 2.20154 (Simulation time: 0 hr 5 min 57 sec) 
Heartbeat CPU 0 instructions: 174000001 cycles: 79035946 heartbeat IPC: 2.20026 cumulative IPC: 2.20153 (Simulation time: 0 hr 5 min 59 sec) 
Heartbeat CPU 0 instructions: 175000003 cycles: 79415012 heartbeat IPC: 2.63807 cumulative IPC: 2.20361 (Simulation time: 0 hr 6 min 1 sec) 
Heartbeat CPU 0 instructions: 176000000 cycles: 79870057 heartbeat IPC: 2.19758 cumulative IPC: 2.20358 (Simulation time: 0 hr 6 min 3 sec) 
Heartbeat CPU 0 instructions: 177000000 cycles: 80411343 heartbeat IPC: 1.84745 cumulative IPC: 2.20118 (Simulation time: 0 hr 6 min 5 sec) 
Heartbeat CPU 0 instructions: 178000000 cycles: 80858020 heartbeat IPC: 2.23875 cumulative IPC: 2.20139 (Simulation time: 0 hr 6 min 7 sec) 
Heartbeat CPU 0 instructions: 179000000 cycles: 81332475 heartbeat IPC: 2.10768 cumulative IPC: 2.20084 (Simulation time: 0 hr 6 min 9 sec) 
*** Reached end of trace for Core: 0 Repeating trace: ../ChampSim_CRC2/trace/bzip2_10M.trace.gz
Heartbeat CPU 0 instructions: 180000000 cycles: 81772810 heartbeat IPC: 2.271 cumulative IPC: 2.20122 (Simulation time: 0 hr 6 min 11 sec) 
Heartbeat CPU 0 instructions: 181000002 cycles: 82227339 heartbeat IPC: 2.20008 cumulative IPC: 2.20121 (Simulation time: 0 hr 6 min 13 sec) 
Heartbeat CPU 0 instructions: 182000001 cycles: 82680597 heartbeat IPC: 2.20625 cumulative IPC: 2.20124 (Simulation time: 0 hr 6 min 15 sec) 
Heartbeat CPU 0 instructions: 183000003 cycles: 83126494 heartbeat IPC: 2.24267 cumulative IPC: 2.20146 (Simulation time: 0 hr 6 min 17 sec) 
Heartbeat CPU 0 instructions: 184000000 cycles: 83581302 heartbeat IPC: 2.19872 cumulative IPC: 2.20145 (Simulation time: 0 hr 6 min 19 sec) 
Heartbeat CPU 0 instructions: 185000000 cycles: 83960711 heartbeat IPC: 2.63568 cumulative IPC: 2.20341 (Simulation time: 0 hr 6 min 21 sec) 
Heartbeat CPU 0 instructions: 186000002 cycles: 84416052 heartbeat IPC: 2.19616 cumulative IPC: 2.20337 (Simulation time: 0 hr 6 min 23 sec) 
Heartbeat CPU 0 instructions: 187000000 cycles: 84956566 heartbeat IPC: 1.85009 cumulative IPC: 2.20112 (Simulation time: 0 hr 6 min 25 sec) 
Heartbeat CPU 0 instructions: 188000000 cycles: 85399555 heartbeat IPC: 2.25739 cumulative IPC: 2.20142 (Simulation time: 0 hr 6 min 27 sec) 
Heartbeat CPU 0 instructions: 189000000 cycles: 85874631 heartbeat IPC: 2.10493 cumulative IPC: 2.20088 (Simulation time: 0 hr 6 min 29 sec) 
*** Reached end of trace for Core: 0 Repeating trace: ../ChampSim_CRC2/trace/bzip2_10M.trace.gz
Heartbeat CPU 0 instructions: 190000000 cycles: 86314954 heartbeat IPC: 2.27106 cumulative IPC: 2.20124 (Simulation time: 0 hr 6 min 32 sec) 
Heartbeat CPU 0 instructions: 191000002 cycles: 86768605 heartbeat IPC: 2.20434 cumulative IPC: 2.20126 (Simulation time: 0 hr 6 min 34 sec) 
Heartbeat CPU 0 instructions: 192000000 cycles: 87221732 heartbeat IPC: 2.20688 cumulative IPC: 2.20129 (Simulation time: 0 hr 6 min 36 sec) 
Heartbeat CPU 0 instructions: 193000002 cycles: 87667399 heartbeat IPC: 2.24383 cumulative IPC: 2.2015 (Simulation time: 0 hr 6 min 38 sec) 
Heartbeat CPU 0 instructions: 194000001 cycles: 88121890 heartbeat IPC: 2.20026 cumulative IPC: 2.2015 (Simulation time: 0 hr 6 min 40 sec) 
Heartbeat CPU 0 instructions: 195000003 cycles: 88500956 heartbeat IPC: 2.63807 cumulative IPC: 2.20337 (Simulation time: 0 hr 6 min 42 sec) 
Heartbeat CPU 0 instructions: 196000000 cycles: 88956001 heartbeat IPC: 2.19758 cumulative IPC: 2.20334 (Simulation time: 0 hr 6 min 44 sec) 
Heartbeat CPU 0 instructions: 197000000 cycles: 89497287 heartbeat IPC: 1.84745 cumulative IPC: 2.20118 (Simulation time: 0 hr 6 min 46 sec) 
Heartbeat CPU 0 instructions: 198000000 cycles: 89943964 heartbeat IPC: 2.23875 cumulative IPC: 2.20137 (Simulation time: 0 hr 6 min 48 sec) 
Heartbeat CPU 0 instructions: 199000000 cycles: 90418419 heartbeat IPC: 2.10768 cumulative IPC: 2.20088 (Simulation time: 0 hr 6 min 50 sec) 
*** Reached end of trace for Core: 0 Repeating trace: ../ChampSim_CRC2/trace/bzip2_10M.trace.gz
Heartbeat CPU 0 instructions: 200000000 cycles: 90858754 heartbeat IPC: 2.271 cumulative IPC: 2.20122 (Simulation time: 0 hr 6 min 52 sec) 

Warmup complete CPU 0 instructions: 200000001 cycles: 90858755 (Simulation time: 0 hr 6 min 52 sec) 

Heartbeat CPU 0 instructions: 201000002 cycles: 92257078 heartbeat IPC: 0.715143 cumulative IPC: 0.715143 (Simulation time: 0 hr 6 min 54 sec) 
Heartbeat CPU 0 instructions: 202000001 cycles: 93743358 heartbeat IPC: 0.67282 cumulative IPC: 0.693336 (Simulation time: 0 hr 6 min 56 sec) 
Heartbeat CPU 0 instructions: 203000002 cycles: 95236130 heartbeat IPC: 0.669895 cumulative IPC: 0.685342 (Simulation time: 0 hr 6 min 58 sec) 
Heartbeat CPU 0 instructions: 204000000 cycles: 96352854 heartbeat IPC: 0.895475 cumulative IPC: 0.728054 (Simulation time: 0 hr 7 min 0 sec) 
Heartbeat CPU 0 instructions: 205000002 cycles: 97277873 heartbeat IPC: 1.08106 cumulative IPC: 0.778923 (Simulation time: 0 hr 7 min 2 sec) 
Heartbeat CPU 0 instructions: 206000002 cycles: 98196520 heartbeat IPC: 1.08856 cumulative IPC: 0.817688 (Simulation time: 0 hr 7 min 4 sec) 
Heartbeat CPU 0 instructions: 207000000 cycles: 99004169 heartbeat IPC: 1.23816 cumulative IPC: 0.859379 (Simulation time: 0 hr 7 min 6 sec) 
Heartbeat CPU 0 instructions: 208000000 cycles: 100387440 heartbeat IPC: 0.722924 cumulative IPC: 0.83957 (Simulation time: 0 hr 7 min 8 sec) 
Heartbeat CPU 0 instructions: 209000002 cycles: 101721768 heartbeat IPC: 0.749442 cumulative IPC: 0.828499 (Simulation time: 0 hr 7 min 10 sec) 
*** Reached end of trace for Core: 0 Repeating trace: ../ChampSim_CRC2/trace/bzip2_10M.trace.gz
Heartbeat CPU 0 instructions: 210000001 cycles: 103293744 heartbeat IPC: 0.636141 cumulative IPC: 0.804182 (Simulation time: 0 hr 7 min 12 sec) 
Heartbeat CPU 0 instructions: 211000002 cycles: 104691131 heartbeat IPC: 0.715622 cumulative IPC: 0.795236 (Simulation time: 0 hr 7 min 14 sec) 
Heartbeat CPU 0 instructions: 212000000 cycles: 106178002 heartbeat IPC: 0.672552 cumulative IPC: 0.783328 (Simulation time: 0 hr 7 min 16 sec) 
Heartbeat CPU 0 instructions: 213000002 cycles: 107670005 heartbeat IPC: 0.670241 cumulative IPC: 0.773292 (Simulation time: 0 hr 7 min 18 sec) 
Heartbeat CPU 0 instructions: 214000000 cycles: 108786353 heartbeat IPC: 0.895776 cumulative IPC: 0.780919 (Simulation time: 0 hr 7 min 20 sec) 
Heartbeat CPU 0 instructions: 215000000 cycles: 109712296 heartbeat IPC: 1.07998 cumulative IPC: 0.795606 (Simulation time: 0 hr 7 min 22 sec) 
Heartbeat CPU 0 instructions: 216000000 cycles: 110631503 heartbeat IPC: 1.08789 cumulative IPC: 0.809195 (Simulation time: 0 hr 7 min 24 sec) 
Heartbeat CPU 0 instructions: 217000000 cycles: 111440264 heartbeat IPC: 1.23646 cumulative IPC: 0.825984 (Simulation time: 0 hr 7 min 26 sec) 
Heartbeat CPU 0 instructions: 218000000 cycles: 112823685 heartbeat IPC: 0.722846 cumulative IPC: 0.819488 (Simulation time: 0 hr 7 min 28 sec) 
Heartbeat CPU 0 instructions: 219000002 cycles: 114158320 heartbeat IPC: 0.74927 cumulative IPC: 0.815466 (Simulation time: 0 hr 7 min 30 sec) 
*** Reached end of trace for Core: 0 Repeating trace: ../ChampSim_CRC2/trace/bzip2_10M.trace.gz
Heartbeat CPU 0 instructions: 220000000 cycles: 115731832 heartbeat IPC: 0.63552 cumulative IPC: 0.804082 (Simulation time: 0 hr 7 min 32 sec) 
Heartbeat CPU 0 instructions: 221000002 cycles: 117130945 heartbeat IPC: 0.71474 cumulative IPC: 0.799324 (Simulation time: 0 hr 7 min 34 sec) 
Heartbeat CPU 0 instructions: 222000001 cycles: 118617315 heartbeat IPC: 0.672779 cumulative IPC: 0.792548 (Simulation time: 0 hr 7 min 36 sec) 
Heartbeat CPU 0 instructions: 223000002 cycles: 120110070 heartbeat IPC: 0.669903 cumulative IPC: 0.786289 (Simulation time: 0 hr 7 min 38 sec) 
Heartbeat CPU 0 instructions: 224000000 cycles: 121226751 heartbeat IPC: 0.895509 cumulative IPC: 0.790306 (Simulation time: 0 hr 7 min 40 sec) 
Heartbeat CPU 0 instructions: 225000002 cycles: 122151768 heartbeat IPC: 1.08106 cumulative IPC: 0.7989 (Simulation time: 0 hr 7 min 42 sec) 
Heartbeat CPU 0 instructions: 226000002 cycles: 123070415 heartbeat IPC: 1.08856 cumulative IPC: 0.807161 (Simulation time: 0 hr 7 min 44 sec) 
Heartbeat CPU 0 instructions: 227000000 cycles: 123878064 heartbeat IPC: 1.23816 cumulative IPC: 0.817703 (Simulation time: 0 hr 7 min 46 sec) 
Heartbeat CPU 0 instructions: 228000000 cycles: 125261335 heartbeat IPC: 0.722924 cumulative IPC: 0.813892 (Simulation time: 0 hr 7 min 48 sec) 
Heartbeat CPU 0 instructions: 229000002 cycles: 126595663 heartbeat IPC: 0.749442 cumulative IPC: 0.811486 (Simulation time: 0 hr 7 min 50 sec) 
*** Reached end of trace for Core: 0 Repeating trace: ../ChampSim_CRC2/trace/bzip2_10M.trace.gz
Heartbeat CPU 0 instructions: 230000001 cycles: 128167639 heartbeat IPC: 0.636141 cumulative IPC: 0.804098 (Simulation time: 0 hr 7 min 52 sec) 
Heartbeat CPU 0 instructions: 231000002 cycles: 129565026 heartbeat IPC: 0.715622 cumulative IPC: 0.800904 (Simulation time: 0 hr 7 min 54 sec) 
Heartbeat CPU 0 instructions: 232000000 cycles: 131051897 heartbeat IPC: 0.672552 cumulative IPC: 0.796156 (Simulation time: 0 hr 7 min 56 sec) 
Heartbeat CPU 0 instructions: 233000002 cycles: 132543900 heartbeat IPC: 0.670241 cumulative IPC: 0.791649 (Simulation time: 0 hr 7 min 58 sec) 
Heartbeat CPU 0 instructions: 234000000 cycles: 133660248 heartbeat IPC: 0.895776 cumulative IPC: 0.794365 (Simulation time: 0 hr 8 min 0 sec) 
Heartbeat CPU 0 instructions: 235000000 cycles: 134586189 heartbeat IPC: 1.07998 cumulative IPC: 0.800413 (Simulation time: 0 hr 8 min 2 sec) 
Heartbeat CPU 0 instructions: 236000000 cycles: 135505396 heartbeat IPC: 1.08789 cumulative IPC: 0.806332 (Simulation time: 0 hr 8 min 4 sec) 
Heartbeat CPU 0 instructions: 237000000 cycles: 136314157 heartbeat IPC: 1.23646 cumulative IPC: 0.813985 (Simulation time: 0 hr 8 min 6 sec) 
Heartbeat CPU 0 instructions: 238000000 cycles: 137697578 heartbeat IPC: 0.722846 cumulative IPC: 0.811293 (Simulation time: 0 hr 8 min 8 sec) 
Heartbeat CPU 0 instructions: 239000002 cycles: 139032213 heartbeat IPC: 0.74927 cumulative IPC: 0.809574 (Simulation time: 0 hr 8 min 10 sec) 
*** Reached end of trace for Core: 0 Repeating trace: ../ChampSim_CRC2/trace/bzip2_10M.trace.gz
Heartbeat CPU 0 instructions: 240000000 cycles: 140605725 heartbeat IPC: 0.63552 cumulative IPC: 0.804069 (Simulation time: 0 hr 8 min 12 sec) 
Heartbeat CPU 0 instructions: 241000002 cycles: 142004838 heartbeat IPC: 0.71474 cumulative IPC: 0.801625 (Simulation time: 0 hr 8 min 14 sec) 
Heartbeat CPU 0 instructions: 242000001 cycles: 143491208 heartbeat IPC: 0.672779 cumulative IPC: 0.797987 (Simulation time: 0 hr 8 min 16 sec) 
Heartbeat CPU 0 instructions: 243000002 cycles: 144983963 heartbeat IPC: 0.669903 cumulative IPC: 0.794454 (Simulation time: 0 hr 8 min 18 sec) 
Heartbeat CPU 0 instructions: 244000000 cycles: 146100644 heartbeat IPC: 0.895509 cumulative IPC: 0.796497 (Simulation time: 0 hr 8 min 20 sec) 
Heartbeat CPU 0 instructions: 245000002 cycles: 147025666 heartbeat IPC: 1.08106 cumulative IPC: 0.801183 (Simulation time: 0 hr 8 min 22 sec) 
Heartbeat CPU 0 instructions: 246000002 cycles: 147944313 heartbeat IPC: 1.08856 cumulative IPC: 0.805808 (Simulation time: 0 hr 8 min 24 sec) 
Heartbeat CPU 0 instructions: 247000000 cycles: 148751962 heartbeat IPC: 1.23816 cumulative IPC: 0.81184 (Simulation time: 0 hr 8 min 26 sec) 
Heartbeat CPU 0 instructions: 248000000 cycles: 150135233 heartbeat IPC: 0.722924 cumulative IPC: 0.809765 (Simulation time: 0 hr 8 min 28 sec) 
Heartbeat CPU 0 instructions: 249000002 cycles: 151469561 heartbeat IPC: 0.749442 cumulative IPC: 0.808437 (Simulation time: 0 hr 8 min 30 sec) 
*** Reached end of trace for Core: 0 Repeating trace: ../ChampSim_CRC2/trace/bzip2_10M.trace.gz
Heartbeat CPU 0 instructions: 250000001 cycles: 153041537 heartbeat IPC: 0.636141 cumulative IPC: 0.804081 (Simulation time: 0 hr 8 min 32 sec) 
Heartbeat CPU 0 instructions: 251000002 cycles: 154438924 heartbeat IPC: 0.715622 cumulative IPC: 0.802137 (Simulation time: 0 hr 8 min 34 sec) 
Heartbeat CPU 0 instructions: 252000000 cycles: 155925795 heartbeat IPC: 0.672552 cumulative IPC: 0.799176 (Simulation time: 0 hr 8 min 36 sec) 
Heartbeat CPU 0 instructions: 253000002 cycles: 157417798 heartbeat IPC: 0.670241 cumulative IPC: 0.796286 (Simulation time: 0 hr 8 min 38 sec) 
Heartbeat CPU 0 instructions: 254000000 cycles: 158534146 heartbeat IPC: 0.895776 cumulative IPC: 0.797927 (Simulation time: 0 hr 8 min 40 sec) 
Heartbeat CPU 0 instructions: 255000000 cycles: 159460082 heartbeat IPC: 1.07999 cumulative IPC: 0.801734 (Simulation time: 0 hr 8 min 42 sec) 
Heartbeat CPU 0 instructions: 256000000 cycles: 160379289 heartbeat IPC: 1.08789 cumulative IPC: 0.805517 (Simulation time: 0 hr 8 min 44 sec) 
Heartbeat CPU 0 instructions: 257000000 cycles: 161188050 heartbeat IPC: 1.23646 cumulative IPC: 0.810473 (Simulation time: 0 hr 8 min 46 sec) 
Heartbeat CPU 0 instructions: 258000000 cycles: 162571471 heartbeat IPC: 0.722846 cumulative IPC: 0.808783 (Simulation time: 0 hr 8 min 48 sec) 
Heartbeat CPU 0 instructions: 259000002 cycles: 163906106 heartbeat IPC: 0.74927 cumulative IPC: 0.807695 (Simulation time: 0 hr 8 min 50 sec) 
*** Reached end of trace for Core: 0 Repeating trace: ../ChampSim_CRC2/trace/bzip2_10M.trace.gz
Heartbeat CPU 0 instructions: 260000000 cycles: 165479618 heartbeat IPC: 0.63552 cumulative IPC: 0.804065 (Simulation time: 0 hr 8 min 52 sec) 
Heartbeat CPU 0 instructions: 261000002 cycles: 166878731 heartbeat IPC: 0.71474 cumulative IPC: 0.802421 (Simulation time: 0 hr 8 min 54 sec) 
Heartbeat CPU 0 instructions: 262000001 cycles: 168365101 heartbeat IPC: 0.672779 cumulative IPC: 0.799935 (Simulation time: 0 hr 8 min 56 sec) 
Heartbeat CPU 0 instructions: 263000002 cycles: 169857856 heartbeat IPC: 0.669903 cumulative IPC: 0.797477 (Simulation time: 0 hr 8 min 58 sec) 
Heartbeat CPU 0 instructions: 264000000 cycles: 170974537 heartbeat IPC: 0.895509 cumulative IPC: 0.798844 (Simulation time: 0 hr 9 min 0 sec) 
Heartbeat CPU 0 instructions: 265000002 cycles: 171899553 heartbeat IPC: 1.08106 cumulative IPC: 0.802065 (Simulation time: 0 hr 9 min 2 sec) 
Heartbeat CPU 0 instructions: 266000002 cycles: 172818200 heartbeat IPC: 1.08856 cumulative IPC: 0.805276 (Simulation time: 0 hr 9 min 4 sec) 
Heartbeat CPU 0 instructions: 267000000 cycles: 173625849 heartbeat IPC: 1.23816 cumulative IPC: 0.8095 (Simulation time: 0 hr 9 min 6 sec) 
Heartbeat CPU 0 instructions: 268000000 cycles: 175009120 heartbeat IPC: 0.722924 cumulative IPC: 0.808077 (Simulation time: 0 hr 9 min 8 sec) 
Heartbeat CPU 0 instructions: 269000002 cycles: 176343448 heartbeat IPC: 0.749442 cumulative IPC: 0.807162 (Simulation time: 0 hr 9 min 10 sec) 
*** Reached end of trace for Core: 0 Repeating trace: ../ChampSim_CRC2/trace/bzip2_10M.trace.gz
Heartbeat CPU 0 instructions: 270000001 cycles: 177915424 heartbeat IPC: 0.636141 cumulative IPC: 0.804074 (Simulation time: 0 hr 9 min 12 sec) 
Heartbeat CPU 0 instructions: 271000002 cycles: 179312811 heartbeat IPC: 0.715622 cumulative IPC: 0.802677 (Simulation time: 0 hr 9 min 14 sec) 
Heartbeat CPU 0 instructions: 272000000 cycles: 180799682 heartbeat IPC: 0.672552 cumulative IPC: 0.800525 (Simulation time: 0 hr 9 min 16 sec) 
Heartbeat CPU 0 instructions: 273000002 cycles: 182291685 heartbeat IPC: 0.670241 cumulative IPC: 0.798399 (Simulation time: 0 hr 9 min 18 sec) 
Heartbeat CPU 0 instructions: 274000000 cycles: 183407996 heartbeat IPC: 0.895806 cumulative IPC: 0.799574 (Simulation time: 0 hr 9 min 20 sec) 
Heartbeat CPU 0 instructions: 275000000 cycles: 184333936 heartbeat IPC: 1.07998 cumulative IPC: 0.802352 (Simulation time: 0 hr 9 min 22 sec) 
Heartbeat CPU 0 instructions: 276000000 cycles: 185253143 heartbeat IPC: 1.08789 cumulative IPC: 0.805133 (Simulation time: 0 hr 9 min 24 sec) 
Heartbeat CPU 0 instructions: 277000000 cycles: 186061904 heartbeat IPC: 1.23646 cumulative IPC: 0.808797 (Simulation time: 0 hr 9 min 26 sec) 
Heartbeat CPU 0 instructions: 278000000 cycles: 187445325 heartbeat IPC: 0.722846 cumulative IPC: 0.807566 (Simulation time: 0 hr 9 min 28 sec) 
Heartbeat CPU 0 instructions: 279000002 cycles: 188779960 heartbeat IPC: 0.74927 cumulative IPC: 0.806771 (Simulation time: 0 hr 9 min 30 sec) 
*** Reached end of trace for Core: 0 Repeating trace: ../ChampSim_CRC2/trace/bzip2_10M.trace.gz
Heartbeat CPU 0 instructions: 280000000 cycles: 190353472 heartbeat IPC: 0.63552 cumulative IPC: 0.804063 (Simulation time: 0 hr 9 min 32 sec) 
Heartbeat CPU 0 instructions: 281000002 cycles: 191752585 heartbeat IPC: 0.71474 cumulative IPC: 0.802824 (Simulation time: 0 hr 9 min 34 sec) 
Heartbeat CPU 0 instructions: 282000001 cycles: 193238955 heartbeat IPC: 0.672779 cumulative IPC: 0.800936 (Simulation time: 0 hr 9 min 36 sec) 
Heartbeat CPU 0 instructions: 283000002 cycles: 194731710 heartbeat IPC: 0.669903 cumulative IPC: 0.799053 (Simulation time: 0 hr 9 min 38 sec) 
Heartbeat CPU 0 instructions: 284000000 cycles: 195848391 heartbeat IPC: 0.895509 cumulative IPC: 0.800079 (Simulation time: 0 hr 9 min 40 sec) 
Heartbeat CPU 0 instructions: 285000002 cycles: 196773416 heartbeat IPC: 1.08105 cumulative IPC: 0.802533 (Simulation time: 0 hr 9 min 42 sec) 
Heartbeat CPU 0 instructions: 286000002 cycles: 197692063 heartbeat IPC: 1.08856 cumulative IPC: 0.804992 (Simulation time: 0 hr 9 min 44 sec) 
Heartbeat CPU 0 instructions: 287000000 cycles: 198499712 heartbeat IPC: 1.23816 cumulative IPC: 0.808242 (Simulation time: 0 hr 9 min 46 sec) 
Heartbeat CPU 0 instructions: 288000000 cycles: 199882983 heartbeat IPC: 0.722924 cumulative IPC: 0.80716 (Simulation time: 0 hr 9 min 48 sec) 
Heartbeat CPU 0 instructions: 289000002 cycles: 201217311 heartbeat IPC: 0.749442 cumulative IPC: 0.806462 (Simulation time: 0 hr 9 min 50 sec) 
*** Reached end of trace for Core: 0 Repeating trace: ../ChampSim_CRC2/trace/bzip2_10M.trace.gz
Heartbeat CPU 0 instructions: 290000001 cycles: 202789287 heartbeat IPC: 0.636141 cumulative IPC: 0.80407 (Simulation time: 0 hr 9 min 52 sec) 
Heartbeat CPU 0 instructions: 291000002 cycles: 204186674 heartbeat IPC: 0.715622 cumulative IPC: 0.80298 (Simulation time: 0 hr 9 min 54 sec) 
Heartbeat CPU 0 instructions: 292000000 cycles: 205673545 heartbeat IPC: 0.672552 cumulative IPC: 0.801291 (Simulation time: 0 hr 9 min 56 sec) 
Heartbeat CPU 0 instructions: 293000002 cycles: 207165548 heartbeat IPC: 0.670241 cumulative IPC: 0.799609 (Simulation time: 0 hr 9 min 58 sec) 
Heartbeat CPU 0 instructions: 294000000 cycles: 208281896 heartbeat IPC: 0.895776 cumulative IPC: 0.800524 (Simulation time: 0 hr 10 min 0 sec) 
Heartbeat CPU 0 instructions: 295000000 cycles: 209207833 heartbeat IPC: 1.07999 cumulative IPC: 0.80271 (Simulation time: 0 hr 10 min 2 sec) 
Heartbeat CPU 0 instructions: 296000000 cycles: 210127040 heartbeat IPC: 1.08789 cumulative IPC: 0.804908 (Simulation time: 0 hr 10 min 4 sec) 
Heartbeat CPU 0 instructions: 297000000 cycles: 210935801 heartbeat IPC: 1.23646 cumulative IPC: 0.807815 (Simulation time: 0 hr 10 min 6 sec) 
Heartbeat CPU 0 instructions: 298000000 cycles: 212319222 heartbeat IPC: 0.722846 cumulative IPC: 0.806847 (Simulation time: 0 hr 10 min 8 sec) 
Heartbeat CPU 0 instructions: 299000002 cycles: 213653857 heartbeat IPC: 0.74927 cumulative IPC: 0.806221 (Simulation time: 0 hr 10 min 10 sec) 
*** Reached end of trace for Core: 0 Repeating trace: ../ChampSim_CRC2/trace/bzip2_10M.trace.gz
Heartbeat CPU 0 instructions: 300000000 cycles: 215227369 heartbeat IPC: 0.63552 cumulative IPC: 0.804061 (Simulation time: 0 hr 10 min 12 sec) 
Heartbeat CPU 0 instructions: 301000002 cycles: 216626482 heartbeat IPC: 0.71474 cumulative IPC: 0.803068 (Simulation time: 0 hr 10 min 14 sec) 
Heartbeat CPU 0 instructions: 302000001 cycles: 218112852 heartbeat IPC: 0.672779 cumulative IPC: 0.801546 (Simulation time: 0 hr 10 min 16 sec) 
Heartbeat CPU 0 instructions: 303000002 cycles: 219605607 heartbeat IPC: 0.669903 cumulative IPC: 0.80002 (Simulation time: 0 hr 10 min 18 sec) 
Heartbeat CPU 0 instructions: 304000000 cycles: 220722286 heartbeat IPC: 0.895511 cumulative IPC: 0.800841 (Simulation time: 0 hr 10 min 20 sec) 
Heartbeat CPU 0 instructions: 305000002 cycles: 221647307 heartbeat IPC: 1.08106 cumulative IPC: 0.802823 (Simulation time: 0 hr 10 min 22 sec) 
Heartbeat CPU 0 instructions: 306000002 cycles: 222565954 heartbeat IPC: 1.08856 cumulative IPC: 0.804816 (Simulation time: 0 hr 10 min 24 sec) 
Heartbeat CPU 0 instructions: 307000000 cycles: 223373603 heartbeat IPC: 1.23816 cumulative IPC: 0.807457 (Simulation time: 0 hr 10 min 26 sec) 
Heartbeat CPU 0 instructions: 308000000 cycles: 224756874 heartbeat IPC: 0.722924 cumulative IPC: 0.806583 (Simulation time: 0 hr 10 min 28 sec) 
Heartbeat CPU 0 instructions: 309000002 cycles: 226091202 heartbeat IPC: 0.749442 cumulative IPC: 0.80602 (Simulation time: 0 hr 10 min 30 sec) 
*** Reached end of trace for Core: 0 Repeating trace: ../ChampSim_CRC2/trace/bzip2_10M.trace.gz
Heartbeat CPU 0 instructions: 310000001 cycles: 227663178 heartbeat IPC: 0.636141 cumulative IPC: 0.804068 (Simulation time: 0 hr 10 min 32 sec) 
Heartbeat CPU 0 instructions: 311000002 cycles: 229060565 heartbeat IPC: 0.715622 cumulative IPC: 0.803173 (Simulation time: 0 hr 10 min 34 sec) 
Heartbeat CPU 0 instructions: 312000000 cycles: 230547436 heartbeat IPC: 0.672552 cumulative IPC: 0.801783 (Simulation time: 0 hr 10 min 36 sec) 
Heartbeat CPU 0 instructions: 313000002 cycles: 232039439 heartbeat IPC: 0.670241 cumulative IPC: 0.800393 (Simulation time: 0 hr 10 min 38 sec) 
Heartbeat CPU 0 instructions: 314000000 cycles: 233155787 heartbeat IPC: 0.895776 cumulative IPC: 0.801141 (Simulation time: 0 hr 10 min 40 sec) 
Heartbeat CPU 0 instructions: 315000000 cycles: 234081726 heartbeat IPC: 1.07998 cumulative IPC: 0.802944 (Simulation time: 0 hr 10 min 42 sec) 
Heartbeat CPU 0 instructions: 316000000 cycles: 235000933 heartbeat IPC: 1.08789 cumulative IPC: 0.804761 (Simulation time: 0 hr 10 min 44 sec) 
Heartbeat CPU 0 instructions: 317000000 cycles: 235809694 heartbeat IPC: 1.23646 cumulative IPC: 0.80717 (Simulation time: 0 hr 10 min 46 sec) 
Heartbeat CPU 0 instructions: 318000000 cycles: 237193115 heartbeat IPC: 0.722846 cumulative IPC: 0.806372 (Simulation time: 0 hr 10 min 48 sec) 
Heartbeat CPU 0 instructions: 319000002 cycles: 238527750 heartbeat IPC: 0.74927 cumulative IPC: 0.805856 (Simulation time: 0 hr 10 min 50 sec) 
*** Reached end of trace for Core: 0 Repeating trace: ../ChampSim_CRC2/trace/bzip2_10M.trace.gz
Heartbeat CPU 0 instructions: 320000000 cycles: 240101262 heartbeat IPC: 0.63552 cumulative IPC: 0.80406 (Simulation time: 0 hr 10 min 52 sec) 
Heartbeat CPU 0 instructions: 321000002 cycles: 241500375 heartbeat IPC: 0.71474 cumulative IPC: 0.803231 (Simulation time: 0 hr 10 min 54 sec) 
Heartbeat CPU 0 instructions: 322000001 cycles: 242986745 heartbeat IPC: 0.672779 cumulative IPC: 0.801956 (Simulation time: 0 hr 10 min 56 sec) 
Heartbeat CPU 0 instructions: 323000002 cycles: 244479500 heartbeat IPC: 0.669903 cumulative IPC: 0.800673 (Simulation time: 0 hr 10 min 58 sec) 
Heartbeat CPU 0 instructions: 324000000 cycles: 245596181 heartbeat IPC: 0.895509 cumulative IPC: 0.801358 (Simulation time: 0 hr 11 min 0 sec) 
Heartbeat CPU 0 instructions: 325000002 cycles: 246521198 heartbeat IPC: 1.08106 cumulative IPC: 0.80302 (Simulation time: 0 hr 11 min 2 sec) 
Heartbeat CPU 0 instructions: 326000002 cycles: 247439845 heartbeat IPC: 1.08856 cumulative IPC: 0.804695 (Simulation time: 0 hr 11 min 4 sec) 
Heartbeat CPU 0 instructions: 327000000 cycles: 248247494 heartbeat IPC: 1.23816 cumulative IPC: 0.806919 (Simulation time: 0 hr 11 min 6 sec) 
Heartbeat CPU 0 instructions: 328000000 cycles: 249630765 heartbeat IPC: 0.722924 cumulative IPC: 0.806187 (Simulation time: 0 hr 11 min 8 sec) 
Heartbeat CPU 0 instructions: 329000002 cycles: 250965093 heartbeat IPC: 0.749442 cumulative IPC: 0.805715 (Simulation time: 0 hr 11 min 10 sec) 
*** Reached end of trace for Core: 0 Repeating trace: ../ChampSim_CRC2/trace/bzip2_10M.trace.gz
Heartbeat CPU 0 instructions: 330000001 cycles: 252537069 heartbeat IPC: 0.636141 cumulative IPC: 0.804066 (Simulation time: 0 hr 11 min 12 sec) 
Heartbeat CPU 0 instructions: 331000002 cycles: 253934456 heartbeat IPC: 0.715622 cumulative IPC: 0.803308 (Simulation time: 0 hr 11 min 14 sec) 
Heartbeat CPU 0 instructions: 332000000 cycles: 255421327 heartbeat IPC: 0.672552 cumulative IPC: 0.802126 (Simulation time: 0 hr 11 min 16 sec) 
Heartbeat CPU 0 instructions: 333000002 cycles: 256913330 heartbeat IPC: 0.670241 cumulative IPC: 0.800942 (Simulation time: 0 hr 11 min 18 sec) 
Heartbeat CPU 0 instructions: 334000000 cycles: 258029678 heartbeat IPC: 0.895776 cumulative IPC: 0.801575 (Simulation time: 0 hr 11 min 20 sec) 
Heartbeat CPU 0 instructions: 335000000 cycles: 258955612 heartbeat IPC: 1.07999 cumulative IPC: 0.803108 (Simulation time: 0 hr 11 min 22 sec) 
Heartbeat CPU 0 instructions: 336000000 cycles: 259874819 heartbeat IPC: 1.08789 cumulative IPC: 0.804657 (Simulation time: 0 hr 11 min 24 sec) 
Heartbeat CPU 0 instructions: 337000000 cycles: 260683580 heartbeat IPC: 1.23646 cumulative IPC: 0.806714 (Simulation time: 0 hr 11 min 26 sec) 
Heartbeat CPU 0 instructions: 338000000 cycles: 262067001 heartbeat IPC: 0.722846 cumulative IPC: 0.806036 (Simulation time: 0 hr 11 min 28 sec) 
Heartbeat CPU 0 instructions: 339000002 cycles: 263401636 heartbeat IPC: 0.74927 cumulative IPC: 0.805597 (Simulation time: 0 hr 11 min 30 sec) 
*** Reached end of trace for Core: 0 Repeating trace: ../ChampSim_CRC2/trace/bzip2_10M.trace.gz
Heartbeat CPU 0 instructions: 340000000 cycles: 264975148 heartbeat IPC: 0.63552 cumulative IPC: 0.80406 (Simulation time: 0 hr 11 min 32 sec) 
Heartbeat CPU 0 instructions: 341000002 cycles: 266374261 heartbeat IPC: 0.71474 cumulative IPC: 0.803348 (Simulation time: 0 hr 11 min 34 sec) 
Heartbeat CPU 0 instructions: 342000001 cycles: 267860631 heartbeat IPC: 0.672779 cumulative IPC: 0.802251 (Simulation time: 0 hr 11 min 36 sec) 
Heartbeat CPU 0 instructions: 343000002 cycles: 269353386 heartbeat IPC: 0.669903 cumulative IPC: 0.801145 (Simulation time: 0 hr 11 min 38 sec) 
Heartbeat CPU 0 instructions: 344000000 cycles: 270470067 heartbeat IPC: 0.895509 cumulative IPC: 0.801731 (Simulation time: 0 hr 11 min 40 sec) 
Heartbeat CPU 0 instructions: 345000002 cycles: 271395086 heartbeat IPC: 1.08106 cumulative IPC: 0.803162 (Simulation time: 0 hr 11 min 42 sec) 
Heartbeat CPU 0 instructions: 346000002 cycles: 272313733 heartbeat IPC: 1.08856 cumulative IPC: 0.804607 (Simulation time: 0 hr 11 min 44 sec) 
Heartbeat CPU 0 instructions: 347000000 cycles: 273121382 heartbeat IPC: 1.23816 cumulative IPC: 0.806528 (Simulation time: 0 hr 11 min 46 sec) 
Heartbeat CPU 0 instructions: 348000000 cycles: 274504653 heartbeat IPC: 0.722924 cumulative IPC: 0.805899 (Simulation time: 0 hr 11 min 48 sec) 
Heartbeat CPU 0 instructions: 349000002 cycles: 275838981 heartbeat IPC: 0.749442 cumulative IPC: 0.805492 (Simulation time: 0 hr 11 min 50 sec) 
*** Reached end of trace for Core: 0 Repeating trace: ../ChampSim_CRC2/trace/bzip2_10M.trace.gz
Heartbeat CPU 0 instructions: 350000001 cycles: 277410957 heartbeat IPC: 0.636141 cumulative IPC: 0.804065 (Simulation time: 0 hr 11 min 52 sec) 
Heartbeat CPU 0 instructions: 351000002 cycles: 278808344 heartbeat IPC: 0.715622 cumulative IPC: 0.803407 (Simulation time: 0 hr 11 min 54 sec) 
Heartbeat CPU 0 instructions: 352000000 cycles: 280295215 heartbeat IPC: 0.672552 cumulative IPC: 0.80238 (Simulation time: 0 hr 11 min 56 sec) 
Heartbeat CPU 0 instructions: 353000002 cycles: 281787218 heartbeat IPC: 0.670241 cumulative IPC: 0.801347 (Simulation time: 0 hr 11 min 58 sec) 
Heartbeat CPU 0 instructions: 354000000 cycles: 282903566 heartbeat IPC: 0.895776 cumulative IPC: 0.801896 (Simulation time: 0 hr 12 min 0 sec) 
Heartbeat CPU 0 instructions: 355000000 cycles: 283829509 heartbeat IPC: 1.07998 cumulative IPC: 0.803231 (Simulation time: 0 hr 12 min 2 sec) 
Heartbeat CPU 0 instructions: 356000000 cycles: 284748716 heartbeat IPC: 1.08789 cumulative IPC: 0.80458 (Simulation time: 0 hr 12 min 4 sec) 
Heartbeat CPU 0 instructions: 357000000 cycles: 285557477 heartbeat IPC: 1.23646 cumulative IPC: 0.806374 (Simulation time: 0 hr 12 min 6 sec) 
Heartbeat CPU 0 instructions: 358000000 cycles: 286940898 heartbeat IPC: 0.722846 cumulative IPC: 0.805785 (Simulation time: 0 hr 12 min 8 sec) 
Heartbeat CPU 0 instructions: 359000002 cycles: 288275533 heartbeat IPC: 0.74927 cumulative IPC: 0.805403 (Simulation time: 0 hr 12 min 10 sec) 
*** Reached end of trace for Core: 0 Repeating trace: ../ChampSim_CRC2/trace/bzip2_10M.trace.gz
Heartbeat CPU 0 instructions: 360000000 cycles: 289849045 heartbeat IPC: 0.63552 cumulative IPC: 0.804059 (Simulation time: 0 hr 12 min 12 sec) 
Heartbeat CPU 0 instructions: 361000002 cycles: 291248158 heartbeat IPC: 0.71474 cumulative IPC: 0.803436 (Simulation time: 0 hr 12 min 14 sec) 
Heartbeat CPU 0 instructions: 362000001 cycles: 292734528 heartbeat IPC: 0.672779 cumulative IPC: 0.802474 (Simulation time: 0 hr 12 min 16 sec) 
Heartbeat CPU 0 instructions: 363000002 cycles: 294227283 heartbeat IPC: 0.669903 cumulative IPC: 0.801501 (Simulation time: 0 hr 12 min 18 sec) 
Heartbeat CPU 0 instructions: 364000000 cycles: 295343964 heartbeat IPC: 0.895509 cumulative IPC: 0.802014 (Simulation time: 0 hr 12 min 20 sec) 
Heartbeat CPU 0 instructions: 365000002 cycles: 296268981 heartbeat IPC: 1.08106 cumulative IPC: 0.803271 (Simulation time: 0 hr 12 min 22 sec) 
Heartbeat CPU 0 instructions: 366000002 cycles: 297187628 heartbeat IPC: 1.08856 cumulative IPC: 0.804541 (Simulation time: 0 hr 12 min 24 sec) 
Heartbeat CPU 0 instructions: 367000000 cycles: 297995277 heartbeat IPC: 1.23816 cumulative IPC: 0.806232 (Simulation time: 0 hr 12 min 26 sec) 
Heartbeat CPU 0 instructions: 368000000 cycles: 299378548 heartbeat IPC: 0.722924 cumulative IPC: 0.805679 (Simulation time: 0 hr 12 min 28 sec) 
Heartbeat CPU 0 instructions: 369000002 cycles: 300712876 heartbeat IPC: 0.749442 cumulative IPC: 0.805321 (Simulation time: 0 hr 12 min 30 sec) 
*** Reached end of trace for Core: 0 Repeating trace: ../ChampSim_CRC2/trace/bzip2_10M.trace.gz
Heartbeat CPU 0 instructions: 370000001 cycles: 302284852 heartbeat IPC: 0.636141 cumulative IPC: 0.804063 (Simulation time: 0 hr 12 min 32 sec) 
Heartbeat CPU 0 instructions: 371000002 cycles: 303682239 heartbeat IPC: 0.715622 cumulative IPC: 0.803483 (Simulation time: 0 hr 12 min 34 sec) 
Heartbeat CPU 0 instructions: 372000000 cycles: 305169110 heartbeat IPC: 0.672552 cumulative IPC: 0.802574 (Simulation time: 0 hr 12 min 36 sec) 
Heartbeat CPU 0 instructions: 373000002 cycles: 306661113 heartbeat IPC: 0.670241 cumulative IPC: 0.801659 (Simulation time: 0 hr 12 min 38 sec) 
Heartbeat CPU 0 instructions: 374000000 cycles: 307777461 heartbeat IPC: 0.895776 cumulative IPC: 0.802144 (Simulation time: 0 hr 12 min 40 sec) 
Heartbeat CPU 0 instructions: 375000000 cycles: 308703402 heartbeat IPC: 1.07998 cumulative IPC: 0.803325 (Simulation time: 0 hr 12 min 42 sec) 
Heartbeat CPU 0 instructions: 376000000 cycles: 309622609 heartbeat IPC: 1.08789 cumulative IPC: 0.80452 (Simulation time: 0 hr 12 min 44 sec) 
Heartbeat CPU 0 instructions: 377000000 cycles: 310431370 heartbeat IPC: 1.23646 cumulative IPC: 0.806111 (Simulation time: 0 hr 12 min 46 sec) 
Heartbeat CPU 0 instructions: 378000000 cycles: 311814791 heartbeat IPC: 0.722846 cumulative IPC: 0.80559 (Simulation time: 0 hr 12 min 48 sec) 
Heartbeat CPU 0 instructions: 379000002 cycles: 313149426 heartbeat IPC: 0.74927 cumulative IPC: 0.805252 (Simulation time: 0 hr 12 min 50 sec) 
*** Reached end of trace for Core: 0 Repeating trace: ../ChampSim_CRC2/trace/bzip2_10M.trace.gz
Heartbeat CPU 0 instructions: 380000000 cycles: 314722938 heartbeat IPC: 0.63552 cumulative IPC: 0.804059 (Simulation time: 0 hr 12 min 52 sec) 
Heartbeat CPU 0 instructions: 381000002 cycles: 316122051 heartbeat IPC: 0.71474 cumulative IPC: 0.803504 (Simulation time: 0 hr 12 min 54 sec) 
Heartbeat CPU 0 instructions: 382000001 cycles: 317608421 heartbeat IPC: 0.672779 cumulative IPC: 0.802647 (Simulation time: 0 hr 12 min 56 sec) 
Heartbeat CPU 0 instructions: 383000002 cycles: 319101176 heartbeat IPC: 0.669903 cumulative IPC: 0.801779 (Simulation time: 0 hr 12 min 58 sec) 
Heartbeat CPU 0 instructions: 384000000 cycles: 320217857 heartbeat IPC: 0.895509 cumulative IPC: 0.802235 (Simulation time: 0 hr 13 min 0 sec) 
Heartbeat CPU 0 instructions: 385000002 cycles: 321142879 heartbeat IPC: 1.08106 cumulative IPC: 0.803355 (Simulation time: 0 hr 13 min 2 sec) 
Heartbeat CPU 0 instructions: 386000002 cycles: 322061526 heartbeat IPC: 1.08856 cumulative IPC: 0.804489 (Simulation time: 0 hr 13 min 4 sec) 
Heartbeat CPU 0 instructions: 387000000 cycles: 322869175 heartbeat IPC: 1.23816 cumulative IPC: 0.805998 (Simulation time: 0 hr 13 min 6 sec) 
Heartbeat CPU 0 instructions: 388000000 cycles: 324252446 heartbeat IPC: 0.722924 cumulative IPC: 0.805506 (Simulation time: 0 hr 13 min 8 sec) 
Heartbeat CPU 0 instructions: 389000002 cycles: 325586774 heartbeat IPC: 0.749442 cumulative IPC: 0.805187 (Simulation time: 0 hr 13 min 10 sec) 
*** Reached end of trace for Core: 0 Repeating trace: ../ChampSim_CRC2/trace/bzip2_10M.trace.gz
Heartbeat CPU 0 instructions: 390000001 cycles: 327158750 heartbeat IPC: 0.636141 cumulative IPC: 0.804063 (Simulation time: 0 hr 13 min 12 sec) 
Heartbeat CPU 0 instructions: 391000002 cycles: 328556137 heartbeat IPC: 0.715622 cumulative IPC: 0.803543 (Simulation time: 0 hr 13 min 14 sec) 
Heartbeat CPU 0 instructions: 392000000 cycles: 330043008 heartbeat IPC: 0.672552 cumulative IPC: 0.802728 (Simulation time: 0 hr 13 min 16 sec) 
Heartbeat CPU 0 instructions: 393000002 cycles: 331535011 heartbeat IPC: 0.670241 cumulative IPC: 0.801907 (Simulation time: 0 hr 13 min 18 sec) 
Heartbeat CPU 0 instructions: 394000000 cycles: 332651359 heartbeat IPC: 0.895776 cumulative IPC: 0.802341 (Simulation time: 0 hr 13 min 20 sec) 
Heartbeat CPU 0 instructions: 395000000 cycles: 333577295 heartbeat IPC: 1.07999 cumulative IPC: 0.8034 (Simulation time: 0 hr 13 min 22 sec) 
Heartbeat CPU 0 instructions: 396000000 cycles: 334496502 heartbeat IPC: 1.08789 cumulative IPC: 0.804473 (Simulation time: 0 hr 13 min 24 sec) 
Heartbeat CPU 0 instructions: 397000000 cycles: 335305263 heartbeat IPC: 1.23646 cumulative IPC: 0.805902 (Simulation time: 0 hr 13 min 26 sec) 
Heartbeat CPU 0 instructions: 398000000 cycles: 336688684 heartbeat IPC: 0.722846 cumulative IPC: 0.805435 (Simulation time: 0 hr 13 min 28 sec) 
Heartbeat CPU 0 instructions: 399000002 cycles: 338023319 heartbeat IPC: 0.74927 cumulative IPC: 0.805132 (Simulation time: 0 hr 13 min 30 sec) 
*** Reached end of trace for Core: 0 Repeating trace: ../ChampSim_CRC2/trace/bzip2_10M.trace.gz
Heartbeat CPU 0 instructions: 400000000 cycles: 339596831 heartbeat IPC: 0.63552 cumulative IPC: 0.804059 (Simulation time: 0 hr 13 min 32 sec) 
Heartbeat CPU 0 instructions: 401000002 cycles: 340995944 heartbeat IPC: 0.71474 cumulative IPC: 0.803559 (Simulation time: 0 hr 13 min 34 sec) 
Heartbeat CPU 0 instructions: 402000001 cycles: 342482314 heartbeat IPC: 0.672779 cumulative IPC: 0.802787 (Simulation time: 0 hr 13 min 36 sec) 
Heartbeat CPU 0 instructions: 403000002 cycles: 343975069 heartbeat IPC: 0.669903 cumulative IPC: 0.802003 (Simulation time: 0 hr 13 min 38 sec) 
Heartbeat CPU 0 instructions: 404000000 cycles: 345091750 heartbeat IPC: 0.895509 cumulative IPC: 0.802414 (Simulation time: 0 hr 13 min 40 sec) 
Heartbeat CPU 0 instructions: 405000002 cycles: 346016766 heartbeat IPC: 1.08106 cumulative IPC: 0.803424 (Simulation time: 0 hr 13 min 42 sec) 
Heartbeat CPU 0 instructions: 406000002 cycles: 346935413 heartbeat IPC: 1.08856 cumulative IPC: 0.804447 (Simulation time: 0 hr 13 min 44 sec) 
Heartbeat CPU 0 instructions: 407000000 cycles: 347743062 heartbeat IPC: 1.23816 cumulative IPC: 0.80581 (Simulation time: 0 hr 13 min 46 sec) 
Heartbeat CPU 0 instructions: 408000000 cycles: 349126333 heartbeat IPC: 0.722924 cumulative IPC: 0.805366 (Simulation time: 0 hr 13 min 48 sec) 
Heartbeat CPU 0 instructions: 409000002 cycles: 350460661 heartbeat IPC: 0.749442 cumulative IPC: 0.805079 (Simulation time: 0 hr 13 min 50 sec) 
*** Reached end of trace for Core: 0 Repeating trace: ../ChampSim_CRC2/trace/bzip2_10M.trace.gz
Heartbeat CPU 0 instructions: 410000001 cycles: 352032637 heartbeat IPC: 0.636141 cumulative IPC: 0.804062 (Simulation time: 0 hr 13 min 52 sec) 
Heartbeat CPU 0 instructions: 411000002 cycles: 353430024 heartbeat IPC: 0.715622 cumulative IPC: 0.803591 (Simulation time: 0 hr 13 min 54 sec) 
Heartbeat CPU 0 instructions: 412000000 cycles: 354916895 heartbeat IPC: 0.672552 cumulative IPC: 0.802853 (Simulation time: 0 hr 13 min 56 sec) 
Heartbeat CPU 0 instructions: 413000002 cycles: 356408898 heartbeat IPC: 0.670241 cumulative IPC: 0.802108 (Simulation time: 0 hr 13 min 59 sec) 
Heartbeat CPU 0 instructions: 414000000 cycles: 357525209 heartbeat IPC: 0.895806 cumulative IPC: 0.802501 (Simulation time: 0 hr 14 min 1 sec) 
Heartbeat CPU 0 instructions: 415000000 cycles: 358451149 heartbeat IPC: 1.07998 cumulative IPC: 0.803461 (Simulation time: 0 hr 14 min 3 sec) 
Heartbeat CPU 0 instructions: 416000000 cycles: 359370356 heartbeat IPC: 1.08789 cumulative IPC: 0.804435 (Simulation time: 0 hr 14 min 5 sec) 
Heartbeat CPU 0 instructions: 417000000 cycles: 360179117 heartbeat IPC: 1.23646 cumulative IPC: 0.805732 (Simulation time: 0 hr 14 min 7 sec) 
Heartbeat CPU 0 instructions: 418000000 cycles: 361562538 heartbeat IPC: 0.722846 cumulative IPC: 0.805308 (Simulation time: 0 hr 14 min 9 sec) 
Heartbeat CPU 0 instructions: 419000002 cycles: 362897173 heartbeat IPC: 0.74927 cumulative IPC: 0.805033 (Simulation time: 0 hr 14 min 11 sec) 
*** Reached end of trace for Core: 0 Repeating trace: ../ChampSim_CRC2/trace/bzip2_10M.trace.gz
Heartbeat CPU 0 instructions: 420000000 cycles: 364470685 heartbeat IPC: 0.63552 cumulative IPC: 0.804058 (Simulation time: 0 hr 14 min 13 sec) 
Heartbeat CPU 0 instructions: 421000002 cycles: 365869798 heartbeat IPC: 0.71474 cumulative IPC: 0.803604 (Simulation time: 0 hr 14 min 15 sec) 
Heartbeat CPU 0 instructions: 422000001 cycles: 367356168 heartbeat IPC: 0.672779 cumulative IPC: 0.802901 (Simulation time: 0 hr 14 min 17 sec) 
Heartbeat CPU 0 instructions: 423000002 cycles: 368848923 heartbeat IPC: 0.669903 cumulative IPC: 0.802187 (Simulation time: 0 hr 14 min 19 sec) 
Heartbeat CPU 0 instructions: 424000000 cycles: 369965604 heartbeat IPC: 0.895509 cumulative IPC: 0.80256 (Simulation time: 0 hr 14 min 21 sec) 
Heartbeat CPU 0 instructions: 425000002 cycles: 370890629 heartbeat IPC: 1.08105 cumulative IPC: 0.80348 (Simulation time: 0 hr 14 min 23 sec) 
Heartbeat CPU 0 instructions: 426000002 cycles: 371809276 heartbeat IPC: 1.08856 cumulative IPC: 0.804412 (Simulation time: 0 hr 14 min 25 sec) 
Heartbeat CPU 0 instructions: 427000000 cycles: 372616925 heartbeat IPC: 1.23816 cumulative IPC: 0.805655 (Simulation time: 0 hr 14 min 27 sec) 
Heartbeat CPU 0 instructions: 428000000 cycles: 374000196 heartbeat IPC: 0.722924 cumulative IPC: 0.805251 (Simulation time: 0 hr 14 min 29 sec) 
Heartbeat CPU 0 instructions: 429000002 cycles: 375334524 heartbeat IPC: 0.749442 cumulative IPC: 0.804989 (Simulation time: 0 hr 14 min 31 sec) 
*** Reached end of trace for Core: 0 Repeating trace: ../ChampSim_CRC2/trace/bzip2_10M.trace.gz
Heartbeat CPU 0 instructions: 430000001 cycles: 376906500 heartbeat IPC: 0.636141 cumulative IPC: 0.804062 (Simulation time: 0 hr 14 min 33 sec) 
Heartbeat CPU 0 instructions: 431000002 cycles: 378303887 heartbeat IPC: 0.715622 cumulative IPC: 0.803632 (Simulation time: 0 hr 14 min 35 sec) 
Heartbeat CPU 0 instructions: 432000000 cycles: 379790758 heartbeat IPC: 0.672552 cumulative IPC: 0.802957 (Simulation time: 0 hr 14 min 37 sec) 
Heartbeat CPU 0 instructions: 433000002 cycles: 381282761 heartbeat IPC: 0.670241 cumulative IPC: 0.802275 (Simulation time: 0 hr 14 min 39 sec) 
Heartbeat CPU 0 instructions: 434000000 cycles: 382399109 heartbeat IPC: 0.895776 cumulative IPC: 0.802633 (Simulation time: 0 hr 14 min 41 sec) 
Heartbeat CPU 0 instructions: 435000000 cycles: 383325046 heartbeat IPC: 1.07999 cumulative IPC: 0.803511 (Simulation time: 0 hr 14 min 43 sec) 
Heartbeat CPU 0 instructions: 436000000 cycles: 384244253 heartbeat IPC: 1.08789 cumulative IPC: 0.804402 (Simulation time: 0 hr 14 min 45 sec) 
Heartbeat CPU 0 instructions: 437000000 cycles: 385053014 heartbeat IPC: 1.23646 cumulative IPC: 0.80559 (Simulation time: 0 hr 14 min 47 sec) 
Heartbeat CPU 0 instructions: 438000000 cycles: 386436435 heartbeat IPC: 0.722846 cumulative IPC: 0.805203 (Simulation time: 0 hr 14 min 49 sec) 
Heartbeat CPU 0 instructions: 439000002 cycles: 387771070 heartbeat IPC: 0.74927 cumulative IPC: 0.804951 (Simulation time: 0 hr 14 min 51 sec) 
*** Reached end of trace for Core: 0 Repeating trace: ../ChampSim_CRC2/trace/bzip2_10M.trace.gz
Heartbeat CPU 0 instructions: 440000000 cycles: 389344582 heartbeat IPC: 0.63552 cumulative IPC: 0.804058 (Simulation time: 0 hr 14 min 53 sec) 
Heartbeat CPU 0 instructions: 441000002 cycles: 390743695 heartbeat IPC: 0.71474 cumulative IPC: 0.803642 (Simulation time: 0 hr 14 min 55 sec) 
Heartbeat CPU 0 instructions: 442000001 cycles: 392230065 heartbeat IPC: 0.672779 cumulative IPC: 0.802996 (Simulation time: 0 hr 14 min 57 sec) 
Heartbeat CPU 0 instructions: 443000002 cycles: 393722820 heartbeat IPC: 0.669903 cumulative IPC: 0.80234 (Simulation time: 0 hr 14 min 59 sec) 
Heartbeat CPU 0 instructions: 444000000 cycles: 394839499 heartbeat IPC: 0.895511 cumulative IPC: 0.802682 (Simulation time: 0 hr 15 min 1 sec) 
Heartbeat CPU 0 instructions: 445000002 cycles: 395764520 heartbeat IPC: 1.08106 cumulative IPC: 0.803527 (Simulation time: 0 hr 15 min 3 sec) 
Heartbeat CPU 0 instructions: 446000002 cycles: 396683167 heartbeat IPC: 1.08856 cumulative IPC: 0.804383 (Simulation time: 0 hr 15 min 5 sec) 
Heartbeat CPU 0 instructions: 447000000 cycles: 397490816 heartbeat IPC: 1.23816 cumulative IPC: 0.805526 (Simulation time: 0 hr 15 min 7 sec) 
Heartbeat CPU 0 instructions: 448000000 cycles: 398874087 heartbeat IPC: 0.722924 cumulative IPC: 0.805155 (Simulation time: 0 hr 15 min 9 sec) 
Heartbeat CPU 0 instructions: 449000002 cycles: 400208415 heartbeat IPC: 0.749442 cumulative IPC: 0.804914 (Simulation time: 0 hr 15 min 11 sec) 
*** Reached end of trace for Core: 0 Repeating trace: ../ChampSim_CRC2/trace/bzip2_10M.trace.gz
Heartbeat CPU 0 instructions: 450000001 cycles: 401780391 heartbeat IPC: 0.636141 cumulative IPC: 0.804061 (Simulation time: 0 hr 15 min 13 sec) 
Heartbeat CPU 0 instructions: 451000002 cycles: 403177778 heartbeat IPC: 0.715622 cumulative IPC: 0.803665 (Simulation time: 0 hr 15 min 15 sec) 
Heartbeat CPU 0 instructions: 452000000 cycles: 404664649 heartbeat IPC: 0.672552 cumulative IPC: 0.803044 (Simulation time: 0 hr 15 min 17 sec) 
Heartbeat CPU 0 instructions: 453000002 cycles: 406156652 heartbeat IPC: 0.670241 cumulative IPC: 0.802416 (Simulation time: 0 hr 15 min 19 sec) 
Heartbeat CPU 0 instructions: 454000000 cycles: 407273000 heartbeat IPC: 0.895776 cumulative IPC: 0.802745 (Simulation time: 0 hr 15 min 21 sec) 
Heartbeat CPU 0 instructions: 455000000 cycles: 408198939 heartbeat IPC: 1.07998 cumulative IPC: 0.803554 (Simulation time: 0 hr 15 min 23 sec) 
Heartbeat CPU 0 instructions: 456000000 cycles: 409118146 heartbeat IPC: 1.08789 cumulative IPC: 0.804375 (Simulation time: 0 hr 15 min 25 sec) 
Heartbeat CPU 0 instructions: 457000000 cycles: 409926907 heartbeat IPC: 1.23646 cumulative IPC: 0.805471 (Simulation time: 0 hr 15 min 27 sec) 
Heartbeat CPU 0 instructions: 458000000 cycles: 411310328 heartbeat IPC: 0.722846 cumulative IPC: 0.805114 (Simulation time: 0 hr 15 min 29 sec) 
Heartbeat CPU 0 instructions: 459000002 cycles: 412644963 heartbeat IPC: 0.74927 cumulative IPC: 0.804882 (Simulation time: 0 hr 15 min 31 sec) 
*** Reached end of trace for Core: 0 Repeating trace: ../ChampSim_CRC2/trace/bzip2_10M.trace.gz
Heartbeat CPU 0 instructions: 460000000 cycles: 414218475 heartbeat IPC: 0.63552 cumulative IPC: 0.804058 (Simulation time: 0 hr 15 min 33 sec) 
Heartbeat CPU 0 instructions: 461000002 cycles: 415617588 heartbeat IPC: 0.71474 cumulative IPC: 0.803673 (Simulation time: 0 hr 15 min 35 sec) 
Heartbeat CPU 0 instructions: 462000001 cycles: 417103958 heartbeat IPC: 0.672779 cumulative IPC: 0.803077 (Simulation time: 0 hr 15 min 36 sec) 
Heartbeat CPU 0 instructions: 463000002 cycles: 418596713 heartbeat IPC: 0.669903 cumulative IPC: 0.80247 (Simulation time: 0 hr 15 min 38 sec) 
Heartbeat CPU 0 instructions: 464000000 cycles: 419713394 heartbeat IPC: 0.895509 cumulative IPC: 0.802786 (Simulation time: 0 hr 15 min 40 sec) 
Heartbeat CPU 0 instructions: 465000002 cycles: 420638411 heartbeat IPC: 1.08106 cumulative IPC: 0.803567 (Simulation time: 0 hr 15 min 43 sec) 
Heartbeat CPU 0 instructions: 466000002 cycles: 421557058 heartbeat IPC: 1.08856 cumulative IPC: 0.804359 (Simulation time: 0 hr 15 min 45 sec) 
Heartbeat CPU 0 instructions: 467000000 cycles: 422364707 heartbeat IPC: 1.23816 cumulative IPC: 0.805415 (Simulation time: 0 hr 15 min 47 sec) 
Heartbeat CPU 0 instructions: 468000000 cycles: 423747978 heartbeat IPC: 0.722924 cumulative IPC: 0.805073 (Simulation time: 0 hr 15 min 49 sec) 
Heartbeat CPU 0 instructions: 469000002 cycles: 425082306 heartbeat IPC: 0.749442 cumulative IPC: 0.804851 (Simulation time: 0 hr 15 min 51 sec) 
*** Reached end of trace for Core: 0 Repeating trace: ../ChampSim_CRC2/trace/bzip2_10M.trace.gz
Heartbeat CPU 0 instructions: 470000001 cycles: 426654282 heartbeat IPC: 0.636141 cumulative IPC: 0.804061 (Simulation time: 0 hr 15 min 52 sec) 
Heartbeat CPU 0 instructions: 471000002 cycles: 428051669 heartbeat IPC: 0.715622 cumulative IPC: 0.803694 (Simulation time: 0 hr 15 min 54 sec) 
Heartbeat CPU 0 instructions: 472000000 cycles: 429538540 heartbeat IPC: 0.672552 cumulative IPC: 0.803118 (Simulation time: 0 hr 15 min 56 sec) 
Heartbeat CPU 0 instructions: 473000002 cycles: 431030543 heartbeat IPC: 0.670241 cumulative IPC: 0.802536 (Simulation time: 0 hr 15 min 58 sec) 
Heartbeat CPU 0 instructions: 474000000 cycles: 432146891 heartbeat IPC: 0.895776 cumulative IPC: 0.802841 (Simulation time: 0 hr 16 min 0 sec) 
Heartbeat CPU 0 instructions: 475000000 cycles: 433072825 heartbeat IPC: 1.07999 cumulative IPC: 0.803591 (Simulation time: 0 hr 16 min 3 sec) 
Heartbeat CPU 0 instructions: 476000000 cycles: 433992032 heartbeat IPC: 1.08789 cumulative IPC: 0.804352 (Simulation time: 0 hr 16 min 5 sec) 
Heartbeat CPU 0 instructions: 477000000 cycles: 434800793 heartbeat IPC: 1.23646 cumulative IPC: 0.805368 (Simulation time: 0 hr 16 min 7 sec) 
Heartbeat CPU 0 instructions: 478000000 cycles: 436184214 heartbeat IPC: 0.722846 cumulative IPC: 0.805038 (Simulation time: 0 hr 16 min 9 sec) 
Heartbeat CPU 0 instructions: 479000002 cycles: 437518849 heartbeat IPC: 0.74927 cumulative IPC: 0.804823 (Simulation time: 0 hr 16 min 11 sec) 
*** Reached end of trace for Core: 0 Repeating trace: ../ChampSim_CRC2/trace/bzip2_10M.trace.gz
Heartbeat CPU 0 instructions: 480000000 cycles: 439092361 heartbeat IPC: 0.63552 cumulative IPC: 0.804058 (Simulation time: 0 hr 16 min 13 sec) 
Heartbeat CPU 0 instructions: 481000002 cycles: 440491474 heartbeat IPC: 0.71474 cumulative IPC: 0.803701 (Simulation time: 0 hr 16 min 14 sec) 
Heartbeat CPU 0 instructions: 482000001 cycles: 441977844 heartbeat IPC: 0.672779 cumulative IPC: 0.803146 (Simulation time: 0 hr 16 min 16 sec) 
Heartbeat CPU 0 instructions: 483000002 cycles: 443470599 heartbeat IPC: 0.669903 cumulative IPC: 0.802582 (Simulation time: 0 hr 16 min 18 sec) 
Heartbeat CPU 0 instructions: 484000000 cycles: 444587280 heartbeat IPC: 0.895509 cumulative IPC: 0.802876 (Simulation time: 0 hr 16 min 20 sec) 
Heartbeat CPU 0 instructions: 485000002 cycles: 445512299 heartbeat IPC: 1.08106 cumulative IPC: 0.803601 (Simulation time: 0 hr 16 min 23 sec) 
Heartbeat CPU 0 instructions: 486000002 cycles: 446430946 heartbeat IPC: 1.08856 cumulative IPC: 0.804337 (Simulation time: 0 hr 16 min 25 sec) 
Heartbeat CPU 0 instructions: 487000000 cycles: 447238595 heartbeat IPC: 1.23816 cumulative IPC: 0.805321 (Simulation time: 0 hr 16 min 27 sec) 
Heartbeat CPU 0 instructions: 488000000 cycles: 448621866 heartbeat IPC: 0.722924 cumulative IPC: 0.805002 (Simulation time: 0 hr 16 min 29 sec) 
Heartbeat CPU 0 instructions: 489000002 cycles: 449956194 heartbeat IPC: 0.749442 cumulative IPC: 0.804796 (Simulation time: 0 hr 16 min 31 sec) 
*** Reached end of trace for Core: 0 Repeating trace: ../ChampSim_CRC2/trace/bzip2_10M.trace.gz
Heartbeat CPU 0 instructions: 490000001 cycles: 451528170 heartbeat IPC: 0.636141 cumulative IPC: 0.80406 (Simulation time: 0 hr 16 min 33 sec) 
Heartbeat CPU 0 instructions: 491000002 cycles: 452925557 heartbeat IPC: 0.715622 cumulative IPC: 0.803719 (Simulation time: 0 hr 16 min 34 sec) 
Heartbeat CPU 0 instructions: 492000000 cycles: 454412428 heartbeat IPC: 0.672552 cumulative IPC: 0.803183 (Simulation time: 0 hr 16 min 36 sec) 
Heartbeat CPU 0 instructions: 493000002 cycles: 455904431 heartbeat IPC: 0.670241 cumulative IPC: 0.802639 (Simulation time: 0 hr 16 min 38 sec) 
Heartbeat CPU 0 instructions: 494000000 cycles: 457020779 heartbeat IPC: 0.895776 cumulative IPC: 0.802923 (Simulation time: 0 hr 16 min 40 sec) 
Heartbeat CPU 0 instructions: 495000000 cycles: 457946722 heartbeat IPC: 1.07998 cumulative IPC: 0.803622 (Simulation time: 0 hr 16 min 43 sec) 
Heartbeat CPU 0 instructions: 496000000 cycles: 458865929 heartbeat IPC: 1.08789 cumulative IPC: 0.804332 (Simulation time: 0 hr 16 min 45 sec) 
Heartbeat CPU 0 instructions: 497000000 cycles: 459674690 heartbeat IPC: 1.23646 cumulative IPC: 0.80528 (Simulation time: 0 hr 16 min 47 sec) 
Heartbeat CPU 0 instructions: 498000000 cycles: 461058111 heartbeat IPC: 0.722846 cumulative IPC: 0.804972 (Simulation time: 0 hr 16 min 49 sec) 
Heartbeat CPU 0 instructions: 499000002 cycles: 462392746 heartbeat IPC: 0.74927 cumulative IPC: 0.804772 (Simulation time: 0 hr 16 min 51 sec) 
*** Reached end of trace for Core: 0 Repeating trace: ../ChampSim_CRC2/trace/bzip2_10M.trace.gz
Heartbeat CPU 0 instructions: 500000000 cycles: 463966258 heartbeat IPC: 0.63552 cumulative IPC: 0.804058 (Simulation time: 0 hr 16 min 53 sec) 
Heartbeat CPU 0 instructions: 501000002 cycles: 465365371 heartbeat IPC: 0.71474 cumulative IPC: 0.803724 (Simulation time: 0 hr 16 min 55 sec) 
Heartbeat CPU 0 instructions: 502000001 cycles: 466851741 heartbeat IPC: 0.672779 cumulative IPC: 0.803206 (Simulation time: 0 hr 16 min 56 sec) 
Heartbeat CPU 0 instructions: 503000002 cycles: 468344496 heartbeat IPC: 0.669903 cumulative IPC: 0.802679 (Simulation time: 0 hr 16 min 58 sec) 
Heartbeat CPU 0 instructions: 504000000 cycles: 469461177 heartbeat IPC: 0.895509 cumulative IPC: 0.802953 (Simulation time: 0 hr 17 min 1 sec) 
Heartbeat CPU 0 instructions: 505000002 cycles: 470386194 heartbeat IPC: 1.08106 cumulative IPC: 0.803631 (Simulation time: 0 hr 17 min 3 sec) 
Heartbeat CPU 0 instructions: 506000002 cycles: 471304841 heartbeat IPC: 1.08856 cumulative IPC: 0.804319 (Simulation time: 0 hr 17 min 5 sec) 
Heartbeat CPU 0 instructions: 507000000 cycles: 472112490 heartbeat IPC: 1.23816 cumulative IPC: 0.805238 (Simulation time: 0 hr 17 min 7 sec) 
Heartbeat CPU 0 instructions: 508000000 cycles: 473495761 heartbeat IPC: 0.722924 cumulative IPC: 0.80494 (Simulation time: 0 hr 17 min 9 sec) 
Heartbeat CPU 0 instructions: 509000002 cycles: 474830089 heartbeat IPC: 0.749442 cumulative IPC: 0.804748 (Simulation time: 0 hr 17 min 11 sec) 
*** Reached end of trace for Core: 0 Repeating trace: ../ChampSim_CRC2/trace/bzip2_10M.trace.gz
Heartbeat CPU 0 instructions: 510000001 cycles: 476402065 heartbeat IPC: 0.636141 cumulative IPC: 0.80406 (Simulation time: 0 hr 17 min 13 sec) 
Heartbeat CPU 0 instructions: 511000002 cycles: 477799452 heartbeat IPC: 0.715622 cumulative IPC: 0.803741 (Simulation time: 0 hr 17 min 15 sec) 
Heartbeat CPU 0 instructions: 512000000 cycles: 479286323 heartbeat IPC: 0.672552 cumulative IPC: 0.803239 (Simulation time: 0 hr 17 min 16 sec) 
Heartbeat CPU 0 instructions: 513000002 cycles: 480778326 heartbeat IPC: 0.670241 cumulative IPC: 0.80273 (Simulation time: 0 hr 17 min 19 sec) 
Heartbeat CPU 0 instructions: 514000000 cycles: 481894674 heartbeat IPC: 0.895776 cumulative IPC: 0.802995 (Simulation time: 0 hr 17 min 20 sec) 
Heartbeat CPU 0 instructions: 515000000 cycles: 482820615 heartbeat IPC: 1.07998 cumulative IPC: 0.80365 (Simulation time: 0 hr 17 min 23 sec) 
Heartbeat CPU 0 instructions: 516000000 cycles: 483739822 heartbeat IPC: 1.08789 cumulative IPC: 0.804315 (Simulation time: 0 hr 17 min 25 sec) 
Heartbeat CPU 0 instructions: 517000000 cycles: 484548583 heartbeat IPC: 1.23646 cumulative IPC: 0.805202 (Simulation time: 0 hr 17 min 27 sec) 
Heartbeat CPU 0 instructions: 518000000 cycles: 485932004 heartbeat IPC: 0.722846 cumulative IPC: 0.804914 (Simulation time: 0 hr 17 min 29 sec) 
Heartbeat CPU 0 instructions: 519000002 cycles: 487266639 heartbeat IPC: 0.74927 cumulative IPC: 0.804727 (Simulation time: 0 hr 17 min 31 sec) 
*** Reached end of trace for Core: 0 Repeating trace: ../ChampSim_CRC2/trace/bzip2_10M.trace.gz
[...]
Heartbeat CPU 0 instructions: 1078000000 cycles: 1182400856 heartbeat IPC: 0.722846 cumulative IPC: 0.804367 (Simulation time: 0 hr 36 min 8 sec) 
Heartbeat CPU 0 instructions: 1079000002 cycles: 1183735491 heartbeat IPC: 0.74927 cumulative IPC: 0.804299 (Simulation time: 0 hr 36 min 10 sec) 
*** Reached end of trace for Core: 0 Repeating trace: ../ChampSim_CRC2/trace/bzip2_10M.trace.gz
Heartbeat CPU 0 instructions: 1080000000 cycles: 1185309003 heartbeat IPC: 0.63552 cumulative IPC: 0.804057 (Simulation time: 0 hr 36 min 12 sec) 
Heartbeat CPU 0 instructions: 1081000002 cycles: 1186708116 heartbeat IPC: 0.71474 cumulative IPC: 0.803943 (Simulation time: 0 hr 36 min 14 sec) 
Heartbeat CPU 0 instructions: 1082000001 cycles: 1188194486 heartbeat IPC: 0.672779 cumulative IPC: 0.803765 (Simulation time: 0 hr 36 min 16 sec) 
Heartbeat CPU 0 instructions: 1083000002 cycles: 1189687241 heartbeat IPC: 0.669903 cumulative IPC: 0.803583 (Simulation time: 0 hr 36 min 18 sec) 
Heartbeat CPU 0 instructions: 1084000000 cycles: 1190803922 heartbeat IPC: 0.895509 cumulative IPC: 0.803676 (Simulation time: 0 hr 36 min 20 sec) 
Heartbeat CPU 0 instructions: 1085000002 cycles: 1191728944 heartbeat IPC: 1.08106 cumulative IPC: 0.803909 (Simulation time: 0 hr 36 min 22 sec) 
Heartbeat CPU 0 instructions: 1086000002 cycles: 1192647591 heartbeat IPC: 1.08856 cumulative IPC: 0.804147 (Simulation time: 0 hr 36 min 24 sec) 
Heartbeat CPU 0 instructions: 1087000000 cycles: 1193455240 heartbeat IPC: 1.23816 cumulative IPC: 0.804465 (Simulation time: 0 hr 36 min 26 sec) 
Heartbeat CPU 0 instructions: 1088000000 cycles: 1194838511 heartbeat IPC: 0.722924 cumulative IPC: 0.804363 (Simulation time: 0 hr 36 min 28 sec) 
Heartbeat CPU 0 instructions: 1089000002 cycles: 1196172839 heartbeat IPC: 0.749442 cumulative IPC: 0.804296 (Simulation time: 0 hr 36 min 30 sec) 
*** Reached end of trace for Core: 0 Repeating trace: ../ChampSim_CRC2/trace/bzip2_10M.trace.gz
Heartbeat CPU 0 instructions: 1090000001 cycles: 1197744815 heartbeat IPC: 0.636141 cumulative IPC: 0.804057 (Simulation time: 0 hr 36 min 32 sec) 
Heartbeat CPU 0 instructions: 1091000002 cycles: 1199142202 heartbeat IPC: 0.715622 cumulative IPC: 0.803946 (Simulation time: 0 hr 36 min 34 sec) 
Heartbeat CPU 0 instructions: 1092000000 cycles: 1200629073 heartbeat IPC: 0.672552 cumulative IPC: 0.80377 (Simulation time: 0 hr 36 min 36 sec) 
Heartbeat CPU 0 instructions: 1093000002 cycles: 1202121076 heartbeat IPC: 0.670241 cumulative IPC: 0.803591 (Simulation time: 0 hr 36 min 38 sec) 
Heartbeat CPU 0 instructions: 1094000000 cycles: 1203237424 heartbeat IPC: 0.895776 cumulative IPC: 0.803683 (Simulation time: 0 hr 36 min 40 sec) 
Heartbeat CPU 0 instructions: 1095000000 cycles: 1204163360 heartbeat IPC: 1.07999 cumulative IPC: 0.803913 (Simulation time: 0 hr 36 min 42 sec) 
Heartbeat CPU 0 instructions: 1096000000 cycles: 1205082567 heartbeat IPC: 1.08789 cumulative IPC: 0.804147 (Simulation time: 0 hr 36 min 44 sec) 
Heartbeat CPU 0 instructions: 1097000000 cycles: 1205891328 heartbeat IPC: 1.23646 cumulative IPC: 0.804461 (Simulation time: 0 hr 36 min 46 sec) 
Heartbeat CPU 0 instructions: 1098000000 cycles: 1207274749 heartbeat IPC: 0.722846 cumulative IPC: 0.80436 (Simulation time: 0 hr 36 min 48 sec) 
Heartbeat CPU 0 instructions: 1099000002 cycles: 1208609384 heartbeat IPC: 0.74927 cumulative IPC: 0.804294 (Simulation time: 0 hr 36 min 50 sec) 
*** Reached end of trace for Core: 0 Repeating trace: ../ChampSim_CRC2/trace/bzip2_10M.trace.gz
Heartbeat CPU 0 instructions: 1100000000 cycles: 1210182896 heartbeat IPC: 0.63552 cumulative IPC: 0.804057 (Simulation time: 0 hr 36 min 52 sec) 
Heartbeat CPU 0 instructions: 1101000002 cycles: 1211582009 heartbeat IPC: 0.71474 cumulative IPC: 0.803945 (Simulation time: 0 hr 36 min 54 sec) 
Heartbeat CPU 0 instructions: 1102000001 cycles: 1213068379 heartbeat IPC: 0.672779 cumulative IPC: 0.803771 (Simulation time: 0 hr 36 min 56 sec) 
Heartbeat CPU 0 instructions: 1103000002 cycles: 1214561134 heartbeat IPC: 0.669903 cumulative IPC: 0.803594 (Simulation time: 0 hr 36 min 58 sec) 
Heartbeat CPU 0 instructions: 1104000000 cycles: 1215677815 heartbeat IPC: 0.895509 cumulative IPC: 0.803685 (Simulation time: 0 hr 37 min 0 sec) 
Heartbeat CPU 0 instructions: 1105000002 cycles: 1216602831 heartbeat IPC: 1.08106 cumulative IPC: 0.803913 (Simulation time: 0 hr 37 min 2 sec) 
Heartbeat CPU 0 instructions: 1106000002 cycles: 1217521478 heartbeat IPC: 1.08856 cumulative IPC: 0.804145 (Simulation time: 0 hr 37 min 4 sec) 
Heartbeat CPU 0 instructions: 1107000000 cycles: 1218329127 heartbeat IPC: 1.23816 cumulative IPC: 0.804456 (Simulation time: 0 hr 37 min 6 sec) 
Heartbeat CPU 0 instructions: 1108000000 cycles: 1219712398 heartbeat IPC: 0.722924 cumulative IPC: 0.804356 (Simulation time: 0 hr 37 min 8 sec) 
Heartbeat CPU 0 instructions: 1109000002 cycles: 1221046726 heartbeat IPC: 0.749442 cumulative IPC: 0.804291 (Simulation time: 0 hr 37 min 10 sec) 
*** Reached end of trace for Core: 0 Repeating trace: ../ChampSim_CRC2/trace/bzip2_10M.trace.gz
Heartbeat CPU 0 instructions: 1110000001 cycles: 1222618702 heartbeat IPC: 0.636141 cumulative IPC: 0.804057 (Simulation time: 0 hr 37 min 12 sec) 
Heartbeat CPU 0 instructions: 1111000002 cycles: 1224016089 heartbeat IPC: 0.715622 cumulative IPC: 0.803948 (Simulation time: 0 hr 37 min 14 sec) 
Heartbeat CPU 0 instructions: 1112000000 cycles: 1225502960 heartbeat IPC: 0.672552 cumulative IPC: 0.803776 (Simulation time: 0 hr 37 min 16 sec) 
Heartbeat CPU 0 instructions: 1113000002 cycles: 1226994963 heartbeat IPC: 0.670241 cumulative IPC: 0.803601 (Simulation time: 0 hr 37 min 18 sec) 
Heartbeat CPU 0 instructions: 1114000000 cycles: 1228111274 heartbeat IPC: 0.895806 cumulative IPC: 0.803691 (Simulation time: 0 hr 37 min 20 sec) 
Heartbeat CPU 0 instructions: 1115000000 cycles: 1229037214 heartbeat IPC: 1.07998 cumulative IPC: 0.803916 (Simulation time: 0 hr 37 min 22 sec) 
Heartbeat CPU 0 instructions: 1116000000 cycles: 1229956421 heartbeat IPC: 1.08789 cumulative IPC: 0.804145 (Simulation time: 0 hr 37 min 24 sec) 
Heartbeat CPU 0 instructions: 1117000000 cycles: 1230765182 heartbeat IPC: 1.23646 cumulative IPC: 0.804452 (Simulation time: 0 hr 37 min 26 sec) 
Heartbeat CPU 0 instructions: 1118000000 cycles: 1232148603 heartbeat IPC: 0.722846 cumulative IPC: 0.804353 (Simulation time: 0 hr 37 min 28 sec) 
Heartbeat CPU 0 instructions: 1119000002 cycles: 1233483238 heartbeat IPC: 0.74927 cumulative IPC: 0.804289 (Simulation time: 0 hr 37 min 30 sec) 
*** Reached end of trace for Core: 0 Repeating trace: ../ChampSim_CRC2/trace/bzip2_10M.trace.gz
Heartbeat CPU 0 instructions: 1120000000 cycles: 1235056750 heartbeat IPC: 0.63552 cumulative IPC: 0.804057 (Simulation time: 0 hr 37 min 32 sec) 
Heartbeat CPU 0 instructions: 1121000002 cycles: 1236455863 heartbeat IPC: 0.71474 cumulative IPC: 0.803948 (Simulation time: 0 hr 37 min 34 sec) 
Heartbeat CPU 0 instructions: 1122000001 cycles: 1237942233 heartbeat IPC: 0.672779 cumulative IPC: 0.803778 (Simulation time: 0 hr 37 min 36 sec) 
Heartbeat CPU 0 instructions: 1123000002 cycles: 1239434988 heartbeat IPC: 0.669903 cumulative IPC: 0.803604 (Simulation time: 0 hr 37 min 38 sec) 
Heartbeat CPU 0 instructions: 1124000000 cycles: 1240551669 heartbeat IPC: 0.895509 cumulative IPC: 0.803693 (Simulation time: 0 hr 37 min 40 sec) 
Heartbeat CPU 0 instructions: 1125000002 cycles: 1241476694 heartbeat IPC: 1.08105 cumulative IPC: 0.803916 (Simulation time: 0 hr 37 min 42 sec) 
Heartbeat CPU 0 instructions: 1126000002 cycles: 1242395341 heartbeat IPC: 1.08856 cumulative IPC: 0.804143 (Simulation time: 0 hr 37 min 44 sec) 
Heartbeat CPU 0 instructions: 1127000000 cycles: 1243202990 heartbeat IPC: 1.23816 cumulative IPC: 0.804447 (Simulation time: 0 hr 37 min 46 sec) 
Heartbeat CPU 0 instructions: 1128000000 cycles: 1244586261 heartbeat IPC: 0.722924 cumulative IPC: 0.804349 (Simulation time: 0 hr 37 min 48 sec) 
Heartbeat CPU 0 instructions: 1129000002 cycles: 1245920589 heartbeat IPC: 0.749442 cumulative IPC: 0.804286 (Simulation time: 0 hr 37 min 50 sec) 
*** Reached end of trace for Core: 0 Repeating trace: ../ChampSim_CRC2/trace/bzip2_10M.trace.gz
Heartbeat CPU 0 instructions: 1130000001 cycles: 1247492565 heartbeat IPC: 0.636141 cumulative IPC: 0.804057 (Simulation time: 0 hr 37 min 52 sec) 
Heartbeat CPU 0 instructions: 1131000002 cycles: 1248889952 heartbeat IPC: 0.715622 cumulative IPC: 0.803951 (Simulation time: 0 hr 37 min 54 sec) 
Heartbeat CPU 0 instructions: 1132000000 cycles: 1250376823 heartbeat IPC: 0.672552 cumulative IPC: 0.803782 (Simulation time: 0 hr 37 min 56 sec) 
Heartbeat CPU 0 instructions: 1133000002 cycles: 1251868826 heartbeat IPC: 0.670241 cumulative IPC: 0.803611 (Simulation time: 0 hr 37 min 58 sec) 
Heartbeat CPU 0 instructions: 1134000000 cycles: 1252985174 heartbeat IPC: 0.895776 cumulative IPC: 0.803699 (Simulation time: 0 hr 38 min 0 sec) 
Heartbeat CPU 0 instructions: 1135000000 cycles: 1253911111 heartbeat IPC: 1.07999 cumulative IPC: 0.803919 (Simulation time: 0 hr 38 min 2 sec) 
Heartbeat CPU 0 instructions: 1136000000 cycles: 1254830318 heartbeat IPC: 1.08789 cumulative IPC: 0.804143 (Simulation time: 0 hr 38 min 4 sec) 
Heartbeat CPU 0 instructions: 1137000000 cycles: 1255639079 heartbeat IPC: 1.23646 cumulative IPC: 0.804444 (Simulation time: 0 hr 38 min 6 sec) 
Heartbeat CPU 0 instructions: 1138000000 cycles: 1257022500 heartbeat IPC: 0.722846 cumulative IPC: 0.804347 (Simulation time: 0 hr 38 min 8 sec) 
Heartbeat CPU 0 instructions: 1139000002 cycles: 1258357135 heartbeat IPC: 0.74927 cumulative IPC: 0.804284 (Simulation time: 0 hr 38 min 10 sec) 
*** Reached end of trace for Core: 0 Repeating trace: ../ChampSim_CRC2/trace/bzip2_10M.trace.gz
Heartbeat CPU 0 instructions: 1140000000 cycles: 1259930647 heartbeat IPC: 0.63552 cumulative IPC: 0.804057 (Simulation time: 0 hr 38 min 12 sec) 
Heartbeat CPU 0 instructions: 1141000002 cycles: 1261329760 heartbeat IPC: 0.71474 cumulative IPC: 0.80395 (Simulation time: 0 hr 38 min 14 sec) 
Heartbeat CPU 0 instructions: 1142000001 cycles: 1262816130 heartbeat IPC: 0.672779 cumulative IPC: 0.803783 (Simulation time: 0 hr 38 min 16 sec) 
Heartbeat CPU 0 instructions: 1143000002 cycles: 1264308885 heartbeat IPC: 0.669903 cumulative IPC: 0.803613 (Simulation time: 0 hr 38 min 18 sec) 
Heartbeat CPU 0 instructions: 1144000000 cycles: 1265425564 heartbeat IPC: 0.895511 cumulative IPC: 0.803701 (Simulation time: 0 hr 38 min 20 sec) 
Heartbeat CPU 0 instructions: 1145000002 cycles: 1266350585 heartbeat IPC: 1.08106 cumulative IPC: 0.803919 (Simulation time: 0 hr 38 min 22 sec) 
Heartbeat CPU 0 instructions: 1146000002 cycles: 1267269232 heartbeat IPC: 1.08856 cumulative IPC: 0.804141 (Simulation time: 0 hr 38 min 24 sec) 
Heartbeat CPU 0 instructions: 1147000000 cycles: 1268076881 heartbeat IPC: 1.23816 cumulative IPC: 0.804439 (Simulation time: 0 hr 38 min 26 sec) 
Heartbeat CPU 0 instructions: 1148000000 cycles: 1269460152 heartbeat IPC: 0.722924 cumulative IPC: 0.804343 (Simulation time: 0 hr 38 min 28 sec) 
Heartbeat CPU 0 instructions: 1149000002 cycles: 1270794480 heartbeat IPC: 0.749442 cumulative IPC: 0.804281 (Simulation time: 0 hr 38 min 30 sec) 
*** Reached end of trace for Core: 0 Repeating trace: ../ChampSim_CRC2/trace/bzip2_10M.trace.gz
Heartbeat CPU 0 instructions: 1150000001 cycles: 1272366456 heartbeat IPC: 0.636141 cumulative IPC: 0.804057 (Simulation time: 0 hr 38 min 32 sec) 
Heartbeat CPU 0 instructions: 1151000002 cycles: 1273763843 heartbeat IPC: 0.715622 cumulative IPC: 0.803953 (Simulation time: 0 hr 38 min 34 sec) 
Heartbeat CPU 0 instructions: 1152000000 cycles: 1275250714 heartbeat IPC: 0.672552 cumulative IPC: 0.803788 (Simulation time: 0 hr 38 min 36 sec) 
Heartbeat CPU 0 instructions: 1153000002 cycles: 1276742717 heartbeat IPC: 0.670241 cumulative IPC: 0.80362 (Simulation time: 0 hr 38 min 38 sec) 
Heartbeat CPU 0 instructions: 1154000000 cycles: 1277859065 heartbeat IPC: 0.895776 cumulative IPC: 0.803707 (Simulation time: 0 hr 38 min 40 sec) 
Heartbeat CPU 0 instructions: 1155000000 cycles: 1278785004 heartbeat IPC: 1.07998 cumulative IPC: 0.803922 (Simulation time: 0 hr 38 min 42 sec) 
Heartbeat CPU 0 instructions: 1156000000 cycles: 1279704211 heartbeat IPC: 1.08789 cumulative IPC: 0.804142 (Simulation time: 0 hr 38 min 44 sec) 
Heartbeat CPU 0 instructions: 1157000000 cycles: 1280512972 heartbeat IPC: 1.23646 cumulative IPC: 0.804435 (Simulation time: 0 hr 38 min 46 sec) 
Heartbeat CPU 0 instructions: 1158000000 cycles: 1281896393 heartbeat IPC: 0.722846 cumulative IPC: 0.804341 (Simulation time: 0 hr 38 min 48 sec) 
Heartbeat CPU 0 instructions: 1159000002 cycles: 1283231028 heartbeat IPC: 0.74927 cumulative IPC: 0.804279 (Simulation time: 0 hr 38 min 50 sec) 
*** Reached end of trace for Core: 0 Repeating trace: ../ChampSim_CRC2/trace/bzip2_10M.trace.gz
Heartbeat CPU 0 instructions: 1160000000 cycles: 1284804540 heartbeat IPC: 0.63552 cumulative IPC: 0.804057 (Simulation time: 0 hr 38 min 52 sec) 
Heartbeat CPU 0 instructions: 1161000002 cycles: 1286203653 heartbeat IPC: 0.71474 cumulative IPC: 0.803952 (Simulation time: 0 hr 38 min 54 sec) 
Heartbeat CPU 0 instructions: 1162000001 cycles: 1287690023 heartbeat IPC: 0.672779 cumulative IPC: 0.803789 (Simulation time: 0 hr 38 min 56 sec) 
Heartbeat CPU 0 instructions: 1163000002 cycles: 1289182778 heartbeat IPC: 0.669903 cumulative IPC: 0.803622 (Simulation time: 0 hr 38 min 58 sec) 
Heartbeat CPU 0 instructions: 1164000000 cycles: 1290299459 heartbeat IPC: 0.895509 cumulative IPC: 0.803708 (Simulation time: 0 hr 39 min 0 sec) 
Heartbeat CPU 0 instructions: 1165000002 cycles: 1291224476 heartbeat IPC: 1.08106 cumulative IPC: 0.803922 (Simulation time: 0 hr 39 min 2 sec) 
Heartbeat CPU 0 instructions: 1166000002 cycles: 1292143123 heartbeat IPC: 1.08856 cumulative IPC: 0.804139 (Simulation time: 0 hr 39 min 4 sec) 
Heartbeat CPU 0 instructions: 1167000000 cycles: 1292950772 heartbeat IPC: 1.23816 cumulative IPC: 0.804431 (Simulation time: 0 hr 39 min 6 sec) 
Heartbeat CPU 0 instructions: 1168000000 cycles: 1294334043 heartbeat IPC: 0.722924 cumulative IPC: 0.804337 (Simulation time: 0 hr 39 min 8 sec) 
Heartbeat CPU 0 instructions: 1169000002 cycles: 1295668371 heartbeat IPC: 0.749442 cumulative IPC: 0.804276 (Simulation time: 0 hr 39 min 10 sec) 
*** Reached end of trace for Core: 0 Repeating trace: ../ChampSim_CRC2/trace/bzip2_10M.trace.gz
Heartbeat CPU 0 instructions: 1170000001 cycles: 1297240347 heartbeat IPC: 0.636141 cumulative IPC: 0.804057 (Simulation time: 0 hr 39 min 12 sec) 
Heartbeat CPU 0 instructions: 1171000002 cycles: 1298637734 heartbeat IPC: 0.715622 cumulative IPC: 0.803955 (Simulation time: 0 hr 39 min 14 sec) 
Heartbeat CPU 0 instructions: 1172000000 cycles: 1300124605 heartbeat IPC: 0.672552 cumulative IPC: 0.803793 (Simulation time: 0 hr 39 min 16 sec) 
Heartbeat CPU 0 instructions: 1173000002 cycles: 1301616608 heartbeat IPC: 0.670241 cumulative IPC: 0.803629 (Simulation time: 0 hr 39 min 18 sec) 
Heartbeat CPU 0 instructions: 1174000000 cycles: 1302732956 heartbeat IPC: 0.895776 cumulative IPC: 0.803714 (Simulation time: 0 hr 39 min 20 sec) 
Heartbeat CPU 0 instructions: 1175000000 cycles: 1303658890 heartbeat IPC: 1.07999 cumulative IPC: 0.803925 (Simulation time: 0 hr 39 min 22 sec) 
Heartbeat CPU 0 instructions: 1176000000 cycles: 1304578097 heartbeat IPC: 1.08789 cumulative IPC: 0.80414 (Simulation time: 0 hr 39 min 24 sec) 
Heartbeat CPU 0 instructions: 1177000000 cycles: 1305386858 heartbeat IPC: 1.23646 cumulative IPC: 0.804428 (Simulation time: 0 hr 39 min 26 sec) 
Heartbeat CPU 0 instructions: 1178000000 cycles: 1306770279 heartbeat IPC: 0.722846 cumulative IPC: 0.804335 (Simulation time: 0 hr 39 min 28 sec) 
Heartbeat CPU 0 instructions: 1179000002 cycles: 1308104914 heartbeat IPC: 0.74927 cumulative IPC: 0.804274 (Simulation time: 0 hr 39 min 30 sec) 
*** Reached end of trace for Core: 0 Repeating trace: ../ChampSim_CRC2/trace/bzip2_10M.trace.gz
Heartbeat CPU 0 instructions: 1180000000 cycles: 1309678426 heartbeat IPC: 0.63552 cumulative IPC: 0.804057 (Simulation time: 0 hr 39 min 32 sec) 
Heartbeat CPU 0 instructions: 1181000002 cycles: 1311077539 heartbeat IPC: 0.71474 cumulative IPC: 0.803954 (Simulation time: 0 hr 39 min 34 sec) 
Heartbeat CPU 0 instructions: 1182000001 cycles: 1312563909 heartbeat IPC: 0.672779 cumulative IPC: 0.803795 (Simulation time: 0 hr 39 min 35 sec) 
Heartbeat CPU 0 instructions: 1183000002 cycles: 1314056664 heartbeat IPC: 0.669903 cumulative IPC: 0.803631 (Simulation time: 0 hr 39 min 37 sec) 
Heartbeat CPU 0 instructions: 1184000000 cycles: 1315173345 heartbeat IPC: 0.895509 cumulative IPC: 0.803715 (Simulation time: 0 hr 39 min 39 sec) 
Heartbeat CPU 0 instructions: 1185000002 cycles: 1316098364 heartbeat IPC: 1.08106 cumulative IPC: 0.803924 (Simulation time: 0 hr 39 min 42 sec) 
Heartbeat CPU 0 instructions: 1186000002 cycles: 1317017011 heartbeat IPC: 1.08856 cumulative IPC: 0.804138 (Simulation time: 0 hr 39 min 44 sec) 
Heartbeat CPU 0 instructions: 1187000000 cycles: 1317824660 heartbeat IPC: 1.23816 cumulative IPC: 0.804423 (Simulation time: 0 hr 39 min 46 sec) 
Heartbeat CPU 0 instructions: 1188000000 cycles: 1319207931 heartbeat IPC: 0.722924 cumulative IPC: 0.804332 (Simulation time: 0 hr 39 min 48 sec) 
Heartbeat CPU 0 instructions: 1189000002 cycles: 1320542259 heartbeat IPC: 0.749442 cumulative IPC: 0.804272 (Simulation time: 0 hr 39 min 50 sec) 
*** Reached end of trace for Core: 0 Repeating trace: ../ChampSim_CRC2/trace/bzip2_10M.trace.gz
Heartbeat CPU 0 instructions: 1190000001 cycles: 1322114235 heartbeat IPC: 0.636141 cumulative IPC: 0.804057 (Simulation time: 0 hr 39 min 52 sec) 
Heartbeat CPU 0 instructions: 1191000002 cycles: 1323511622 heartbeat IPC: 0.715622 cumulative IPC: 0.803957 (Simulation time: 0 hr 39 min 54 sec) 
Heartbeat CPU 0 instructions: 1192000000 cycles: 1324998493 heartbeat IPC: 0.672552 cumulative IPC: 0.803799 (Simulation time: 0 hr 39 min 55 sec) 
Heartbeat CPU 0 instructions: 1193000002 cycles: 1326490496 heartbeat IPC: 0.670241 cumulative IPC: 0.803638 (Simulation time: 0 hr 39 min 57 sec) 
Heartbeat CPU 0 instructions: 1194000000 cycles: 1327606844 heartbeat IPC: 0.895776 cumulative IPC: 0.803721 (Simulation time: 0 hr 39 min 59 sec) 
Heartbeat CPU 0 instructions: 1195000000 cycles: 1328532787 heartbeat IPC: 1.07998 cumulative IPC: 0.803927 (Simulation time: 0 hr 40 min 2 sec) 
Heartbeat CPU 0 instructions: 1196000000 cycles: 1329451994 heartbeat IPC: 1.08789 cumulative IPC: 0.804138 (Simulation time: 0 hr 40 min 4 sec) 
Heartbeat CPU 0 instructions: 1197000000 cycles: 1330260755 heartbeat IPC: 1.23646 cumulative IPC: 0.80442 (Simulation time: 0 hr 40 min 6 sec) 
Heartbeat CPU 0 instructions: 1198000000 cycles: 1331644176 heartbeat IPC: 0.722846 cumulative IPC: 0.804329 (Simulation time: 0 hr 40 min 8 sec) 
Heartbeat CPU 0 instructions: 1199000002 cycles: 1332978811 heartbeat IPC: 0.74927 cumulative IPC: 0.80427 (Simulation time: 0 hr 40 min 10 sec) 
*** Reached end of trace for Core: 0 Repeating trace: ../ChampSim_CRC2/trace/bzip2_10M.trace.gz
Heartbeat CPU 0 instructions: 1200000000 cycles: 1334552323 heartbeat IPC: 0.63552 cumulative IPC: 0.804057 (Simulation time: 0 hr 40 min 12 sec) 
Finished CPU 0 instructions: 1000000000 cycles: 1243693576 cummulative IPC: 0.804057 (Simulation time: 0 hr 40 min 12 sec) 

ChampSim completed all CPUs

Region of Interest Statistics

CPU 0 cummulative IPC: 0.804057 instructions: 1000000000 cycles: 1243693576
LLC TOTAL     ACCESS:   10448399  HIT:   10228399  MISS:     220000
LLC LOAD      ACCESS:    6580099  HIT:    6474399  MISS:     105700
LLC RFO       ACCESS:    1674850  HIT:    1560550  MISS:     114300
LLC PREFETCH  ACCESS:          0  HIT:          0  MISS:          0
LLC WRITEBACK ACCESS:    2193450  HIT:    2193450  MISS:          0
