
*** ChampSim Multicore Out-of-Order Simulator ***

Warmup Instructions: 200000000
Simulation Instructions: 1000000000
Configuration: 1
Number of CPUs: 1
LLC sets: 2048
LLC ways: 16
Off-chip DRAM Channels: 1 Width: 64-bit Data Rate: 1600 MT/s

CPU 0 runs ../ChampSim_CRC2/trace/bzip2_10M.trace.gz
Initialize SHiP state
Heartbeat CPU 0 instructions: 1000002 cycles: 454321 heartbeat IPC: 2.20109 cumulative IPC: 2.20109 (Simulation time: 0 hr 0 min 2 sec) 
Heartbeat CPU 0 instructions: 2000001 cycles: 907396 heartbeat IPC: 2.20714 cumulative IPC: 2.20411 (Simulation time: 0 hr 0 min 4 sec) 
Heartbeat CPU 0 instructions: 3000003 cycles: 1353173 heartbeat IPC: 2.24328 cumulative IPC: 2.21701 (Simulation time: 0 hr 0 min 6 sec) 
Heartbeat CPU 0 instructions: 4000000 cycles: 1808033 heartbeat IPC: 2.19847 cumulative IPC: 2.21235 (Simulation time: 0 hr 0 min 8 sec) 
Heartbeat CPU 0 instructions: 5000000 cycles: 2187398 heartbeat IPC: 2.63598 cumulative IPC: 2.28582 (Simulation time: 0 hr 0 min 10 sec) 
Heartbeat CPU 0 instructions: 6000002 cycles: 2642704 heartbeat IPC: 2.19633 cumulative IPC: 2.2704 (Simulation time: 0 hr 0 min 12 sec) 
Heartbeat CPU 0 instructions: 7000000 cycles: 3183138 heartbeat IPC: 1.85036 cumulative IPC: 2.19909 (Simulation time: 0 hr 0 min 14 sec) 
Heartbeat CPU 0 instructions: 8000000 cycles: 3626094 heartbeat IPC: 2.25756 cumulative IPC: 2.20623 (Simulation time: 0 hr 0 min 16 sec) 
Heartbeat CPU 0 instructions: 9000000 cycles: 4101163 heartbeat IPC: 2.10496 cumulative IPC: 2.1945 (Simulation time: 0 hr 0 min 18 sec) 
*** Reached end of trace for Core: 0 Repeating trace: ../ChampSim_CRC2/trace/bzip2_10M.trace.gz
Heartbeat CPU 0 instructions: 10000000 cycles: 4541483 heartbeat IPC: 2.27108 cumulative IPC: 2.20192 (Simulation time: 0 hr 0 min 20 sec) 
Heartbeat CPU 0 instructions: 11000002 cycles: 4995136 heartbeat IPC: 2.20433 cumulative IPC: 2.20214 (Simulation time: 0 hr 0 min 22 sec) 
Heartbeat CPU 0 instructions: 12000000 cycles: 5448262 heartbeat IPC: 2.20689 cumulative IPC: 2.20254 (Simulation time: 0 hr 0 min 24 sec) 
Heartbeat CPU 0 instructions: 13000002 cycles: 5893926 heartbeat IPC: 2.24385 cumulative IPC: 2.20566 (Simulation time: 0 hr 0 min 26 sec) 
Heartbeat CPU 0 instructions: 14000001 cycles: 6348415 heartbeat IPC: 2.20027 cumulative IPC: 2.20528 (Simulation time: 0 hr 0 min 28 sec) 
Heartbeat CPU 0 instructions: 15000003 cycles: 6727419 heartbeat IPC: 2.6385 cumulative IPC: 2.22968 (Simulation time: 0 hr 0 min 30 sec) 
Heartbeat CPU 0 instructions: 16000000 cycles: 7182464 heartbeat IPC: 2.19758 cumulative IPC: 2.22765 (Simulation time: 0 hr 0 min 32 sec) 
Heartbeat CPU 0 instructions: 17000000 cycles: 7723753 heartbeat IPC: 1.84744 cumulative IPC: 2.201 (Simulation time: 0 hr 0 min 34 sec) 
Heartbeat CPU 0 instructions: 18000000 cycles: 8170438 heartbeat IPC: 2.23871 cumulative IPC: 2.20306 (Simulation time: 0 hr 0 min 36 sec) 
Heartbeat CPU 0 instructions: 19000000 cycles: 8644893 heartbeat IPC: 2.10768 cumulative IPC: 2.19783 (Simulation time: 0 hr 0 min 39 sec) 
*** Reached end of trace for Core: 0 Repeating trace: ../ChampSim_CRC2/trace/bzip2_10M.trace.gz
Heartbeat CPU 0 instructions: 20000000 cycles: 9085228 heartbeat IPC: 2.271 cumulative IPC: 2.20138 (Simulation time: 0 hr 0 min 41 sec) 
Heartbeat CPU 0 instructions: 21000002 cycles: 9539757 heartbeat IPC: 2.20008 cumulative IPC: 2.20131 (Simulation time: 0 hr 0 min 43 sec) 
Heartbeat CPU 0 instructions: 22000001 cycles: 9993016 heartbeat IPC: 2.20624 cumulative IPC: 2.20154 (Simulation time: 0 hr 0 min 45 sec) 
Heartbeat CPU 0 instructions: 23000003 cycles: 10438917 heartbeat IPC: 2.24265 cumulative IPC: 2.20329 (Simulation time: 0 hr 0 min 47 sec) 
Heartbeat CPU 0 instructions: 24000000 cycles: 10893734 heartbeat IPC: 2.19868 cumulative IPC: 2.2031 (Simulation time: 0 hr 0 min 49 sec) 
Heartbeat CPU 0 instructions: 25000000 cycles: 11273130 heartbeat IPC: 2.63577 cumulative IPC: 2.21766 (Simulation time: 0 hr 0 min 50 sec) 
Heartbeat CPU 0 instructions: 26000002 cycles: 11728471 heartbeat IPC: 2.19616 cumulative IPC: 2.21683 (Simulation time: 0 hr 0 min 52 sec) 
Heartbeat CPU 0 instructions: 27000000 cycles: 12268992 heartbeat IPC: 1.85006 cumulative IPC: 2.20067 (Simulation time: 0 hr 0 min 55 sec) 
Heartbeat CPU 0 instructions: 28000000 cycles: 12711998 heartbeat IPC: 2.25731 cumulative IPC: 2.20264 (Simulation time: 0 hr 0 min 56 sec) 
Heartbeat CPU 0 instructions: 29000000 cycles: 13187071 heartbeat IPC: 2.10494 cumulative IPC: 2.19912 (Simulation time: 0 hr 0 min 59 sec) 
*** Reached end of trace for Core: 0 Repeating trace: ../ChampSim_CRC2/trace/bzip2_10M.trace.gz
Heartbeat CPU 0 instructions: 30000000 cycles: 13627394 heartbeat IPC: 2.27106 cumulative IPC: 2.20145 (Simulation time: 0 hr 1 min 1 sec) 
Heartbeat CPU 0 instructions: 31000002 cycles: 14081046 heartbeat IPC: 2.20434 cumulative IPC: 2.20154 (Simulation time: 0 hr 1 min 3 sec) 
Heartbeat CPU 0 instructions: 32000000 cycles: 14534171 heartbeat IPC: 2.20689 cumulative IPC: 2.20171 (Simulation time: 0 hr 1 min 5 sec) 
Heartbeat CPU 0 instructions: 33000002 cycles: 14979854 heartbeat IPC: 2.24375 cumulative IPC: 2.20296 (Simulation time: 0 hr 1 min 7 sec) 
Heartbeat CPU 0 instructions: 34000001 cycles: 15434365 heartbeat IPC: 2.20016 cumulative IPC: 2.20288 (Simulation time: 0 hr 1 min 9 sec) 
Heartbeat CPU 0 instructions: 35000003 cycles: 15813390 heartbeat IPC: 2.63835 cumulative IPC: 2.21331 (Simulation time: 0 hr 1 min 10 sec) 
Heartbeat CPU 0 instructions: 36000000 cycles: 16268433 heartbeat IPC: 2.19759 cumulative IPC: 2.21287 (Simulation time: 0 hr 1 min 12 sec) 
Heartbeat CPU 0 instructions: 37000000 cycles: 16809721 heartbeat IPC: 1.84745 cumulative IPC: 2.20111 (Simulation time: 0 hr 1 min 14 sec) 
Heartbeat CPU 0 instructions: 38000000 cycles: 17256405 heartbeat IPC: 2.23872 cumulative IPC: 2.20208 (Simulation time: 0 hr 1 min 16 sec) 
Heartbeat CPU 0 instructions: 39000000 cycles: 17730858 heartbeat IPC: 2.10769 cumulative IPC: 2.19956 (Simulation time: 0 hr 1 min 19 sec) 
*** Reached end of trace for Core: 0 Repeating trace: ../ChampSim_CRC2/trace/bzip2_10M.trace.gz
Heartbeat CPU 0 instructions: 40000000 cycles: 18171193 heartbeat IPC: 2.271 cumulative IPC: 2.20129 (Simulation time: 0 hr 1 min 21 sec) 
Heartbeat CPU 0 instructions: 41000002 cycles: 18625722 heartbeat IPC: 2.20008 cumulative IPC: 2.20126 (Simulation time: 0 hr 1 min 23 sec) 
Heartbeat CPU 0 instructions: 42000001 cycles: 19078981 heartbeat IPC: 2.20624 cumulative IPC: 2.20138 (Simulation time: 0 hr 1 min 25 sec) 
Heartbeat CPU 0 instructions: 43000003 cycles: 19524879 heartbeat IPC: 2.24267 cumulative IPC: 2.20232 (Simulation time: 0 hr 1 min 27 sec) 
Heartbeat CPU 0 instructions: 44000000 cycles: 19979732 heartbeat IPC: 2.19851 cumulative IPC: 2.20223 (Simulation time: 0 hr 1 min 29 sec) 
Heartbeat CPU 0 instructions: 45000000 cycles: 20359157 heartbeat IPC: 2.63557 cumulative IPC: 2.21031 (Simulation time: 0 hr 1 min 30 sec) 
Heartbeat CPU 0 instructions: 46000002 cycles: 20814492 heartbeat IPC: 2.19619 cumulative IPC: 2.21 (Simulation time: 0 hr 1 min 32 sec) 
Heartbeat CPU 0 instructions: 47000000 cycles: 21355009 heartbeat IPC: 1.85008 cumulative IPC: 2.20089 (Simulation time: 0 hr 1 min 35 sec) 
Heartbeat CPU 0 instructions: 48000000 cycles: 21798030 heartbeat IPC: 2.25723 cumulative IPC: 2.20203 (Simulation time: 0 hr 1 min 37 sec) 
Heartbeat CPU 0 instructions: 49000000 cycles: 22273103 heartbeat IPC: 2.10494 cumulative IPC: 2.19996 (Simulation time: 0 hr 1 min 39 sec) 
*** Reached end of trace for Core: 0 Repeating trace: ../ChampSim_CRC2/trace/bzip2_10M.trace.gz
Heartbeat CPU 0 instructions: 50000000 cycles: 22713426 heartbeat IPC: 2.27106 cumulative IPC: 2.20134 (Simulation time: 0 hr 1 min 41 sec) 
Heartbeat CPU 0 instructions: 51000002 cycles: 23167079 heartbeat IPC: 2.20433 cumulative IPC: 2.2014 (Simulation time: 0 hr 1 min 43 sec) 
Heartbeat CPU 0 instructions: 52000000 cycles: 23620203 heartbeat IPC: 2.2069 cumulative IPC: 2.20151 (Simulation time: 0 hr 1 min 45 sec) 
Heartbeat CPU 0 instructions: 53000002 cycles: 24065868 heartbeat IPC: 2.24384 cumulative IPC: 2.20229 (Simulation time: 0 hr 1 min 47 sec) 
Heartbeat CPU 0 instructions: 54000001 cycles: 24520386 heartbeat IPC: 2.20013 cumulative IPC: 2.20225 (Simulation time: 0 hr 1 min 49 sec) 
Heartbeat CPU 0 instructions: 55000003 cycles: 24899364 heartbeat IPC: 2.63868 cumulative IPC: 2.20889 (Simulation time: 0 hr 1 min 51 sec) 
Heartbeat CPU 0 instructions: 56000000 cycles: 25354410 heartbeat IPC: 2.19757 cumulative IPC: 2.20869 (Simulation time: 0 hr 1 min 52 sec) 
Heartbeat CPU 0 instructions: 57000000 cycles: 25895699 heartbeat IPC: 1.84744 cumulative IPC: 2.20114 (Simulation time: 0 hr 1 min 55 sec) 
Heartbeat CPU 0 instructions: 58000000 cycles: 26342381 heartbeat IPC: 2.23873 cumulative IPC: 2.20178 (Simulation time: 0 hr 1 min 57 sec) 
Heartbeat CPU 0 instructions: 59000000 cycles: 26816834 heartbeat IPC: 2.10769 cumulative IPC: 2.20011 (Simulation time: 0 hr 1 min 59 sec) 
*** Reached end of trace for Core: 0 Repeating trace: ../ChampSim_CRC2/trace/bzip2_10M.trace.gz
Heartbeat CPU 0 instructions: 60000000 cycles: 27257170 heartbeat IPC: 2.27099 cumulative IPC: 2.20126 (Simulation time: 0 hr 2 min 1 sec) 
Heartbeat CPU 0 instructions: 61000002 cycles: 27711702 heartbeat IPC: 2.20007 cumulative IPC: 2.20124 (Simulation time: 0 hr 2 min 3 sec) 
Heartbeat CPU 0 instructions: 62000001 cycles: 28164960 heartbeat IPC: 2.20625 cumulative IPC: 2.20132 (Simulation time: 0 hr 2 min 5 sec) 
Heartbeat CPU 0 instructions: 63000003 cycles: 28610856 heartbeat IPC: 2.24268 cumulative IPC: 2.20196 (Simulation time: 0 hr 2 min 7 sec) 
Heartbeat CPU 0 instructions: 64000000 cycles: 29065704 heartbeat IPC: 2.19853 cumulative IPC: 2.20191 (Simulation time: 0 hr 2 min 9 sec) 
Heartbeat CPU 0 instructions: 65000000 cycles: 29445134 heartbeat IPC: 2.63553 cumulative IPC: 2.2075 (Simulation time: 0 hr 2 min 11 sec) 
Heartbeat CPU 0 instructions: 66000002 cycles: 29900474 heartbeat IPC: 2.19617 cumulative IPC: 2.20732 (Simulation time: 0 hr 2 min 13 sec) 
Heartbeat CPU 0 instructions: 67000000 cycles: 30440995 heartbeat IPC: 1.85006 cumulative IPC: 2.20098 (Simulation time: 0 hr 2 min 15 sec) 
Heartbeat CPU 0 instructions: 68000000 cycles: 30884015 heartbeat IPC: 2.25723 cumulative IPC: 2.20179 (Simulation time: 0 hr 2 min 17 sec) 
Heartbeat CPU 0 instructions: 69000000 cycles: 31359088 heartbeat IPC: 2.10494 cumulative IPC: 2.20032 (Simulation time: 0 hr 2 min 19 sec) 
*** Reached end of trace for Core: 0 Repeating trace: ../ChampSim_CRC2/trace/bzip2_10M.trace.gz
Heartbeat CPU 0 instructions: 70000000 cycles: 31799411 heartbeat IPC: 2.27106 cumulative IPC: 2.2013 (Simulation time: 0 hr 2 min 21 sec) 
Heartbeat CPU 0 instructions: 71000002 cycles: 32253066 heartbeat IPC: 2.20432 cumulative IPC: 2.20134 (Simulation time: 0 hr 2 min 23 sec) 
Heartbeat CPU 0 instructions: 72000000 cycles: 32706191 heartbeat IPC: 2.20689 cumulative IPC: 2.20142 (Simulation time: 0 hr 2 min 25 sec) 
Heartbeat CPU 0 instructions: 73000002 cycles: 33151861 heartbeat IPC: 2.24382 cumulative IPC: 2.20199 (Simulation time: 0 hr 2 min 27 sec) 
Heartbeat CPU 0 instructions: 74000001 cycles: 33606379 heartbeat IPC: 2.20013 cumulative IPC: 2.20196 (Simulation time: 0 hr 2 min 29 sec) 
Heartbeat CPU 0 instructions: 75000003 cycles: 33985400 heartbeat IPC: 2.63838 cumulative IPC: 2.20683 (Simulation time: 0 hr 2 min 31 sec) 
Heartbeat CPU 0 instructions: 76000000 cycles: 34440446 heartbeat IPC: 2.19757 cumulative IPC: 2.20671 (Simulation time: 0 hr 2 min 33 sec) 
Heartbeat CPU 0 instructions: 77000000 cycles: 34981735 heartbeat IPC: 1.84744 cumulative IPC: 2.20115 (Simulation time: 0 hr 2 min 35 sec) 
Heartbeat CPU 0 instructions: 78000000 cycles: 35428421 heartbeat IPC: 2.23871 cumulative IPC: 2.20162 (Simulation time: 0 hr 2 min 37 sec) 
Heartbeat CPU 0 instructions: 79000000 cycles: 35902874 heartbeat IPC: 2.10769 cumulative IPC: 2.20038 (Simulation time: 0 hr 2 min 39 sec) 
*** Reached end of trace for Core: 0 Repeating trace: ../ChampSim_CRC2/trace/bzip2_10M.trace.gz
Heartbeat CPU 0 instructions: 80000000 cycles: 36343210 heartbeat IPC: 2.27099 cumulative IPC: 2.20124 (Simulation time: 0 hr 2 min 41 sec) 
Heartbeat CPU 0 instructions: 81000002 cycles: 36797742 heartbeat IPC: 2.20007 cumulative IPC: 2.20122 (Simulation time: 0 hr 2 min 43 sec) 
Heartbeat CPU 0 instructions: 82000001 cycles: 37250999 heartbeat IPC: 2.20625 cumulative IPC: 2.20128 (Simulation time: 0 hr 2 min 45 sec) 
Heartbeat CPU 0 instructions: 83000003 cycles: 37696896 heartbeat IPC: 2.24267 cumulative IPC: 2.20177 (Simulation time: 0 hr 2 min 47 sec) 
Heartbeat CPU 0 instructions: 84000000 cycles: 38151744 heartbeat IPC: 2.19853 cumulative IPC: 2.20173 (Simulation time: 0 hr 2 min 49 sec) 
Heartbeat CPU 0 instructions: 85000000 cycles: 38531156 heartbeat IPC: 2.63566 cumulative IPC: 2.20601 (Simulation time: 0 hr 2 min 51 sec) 
Heartbeat CPU 0 instructions: 86000002 cycles: 38986497 heartbeat IPC: 2.19616 cumulative IPC: 2.20589 (Simulation time: 0 hr 2 min 53 sec) 
Heartbeat CPU 0 instructions: 87000000 cycles: 39527018 heartbeat IPC: 1.85006 cumulative IPC: 2.20103 (Simulation time: 0 hr 2 min 55 sec) 
Heartbeat CPU 0 instructions: 88000000 cycles: 39970039 heartbeat IPC: 2.25723 cumulative IPC: 2.20165 (Simulation time: 0 hr 2 min 57 sec) 
Heartbeat CPU 0 instructions: 89000000 cycles: 40445112 heartbeat IPC: 2.10494 cumulative IPC: 2.20051 (Simulation time: 0 hr 2 min 59 sec) 
*** Reached end of trace for Core: 0 Repeating trace: ../ChampSim_CRC2/trace/bzip2_10M.trace.gz
Heartbeat CPU 0 instructions: 90000000 cycles: 40885436 heartbeat IPC: 2.27105 cumulative IPC: 2.20127 (Simulation time: 0 hr 3 min 1 sec) 
Heartbeat CPU 0 instructions: 91000002 cycles: 41339091 heartbeat IPC: 2.20432 cumulative IPC: 2.20131 (Simulation time: 0 hr 3 min 3 sec) 
Heartbeat CPU 0 instructions: 92000000 cycles: 41792217 heartbeat IPC: 2.20689 cumulative IPC: 2.20137 (Simulation time: 0 hr 3 min 5 sec) 
Heartbeat CPU 0 instructions: 93000002 cycles: 42237883 heartbeat IPC: 2.24384 cumulative IPC: 2.20181 (Simulation time: 0 hr 3 min 7 sec) 
Heartbeat CPU 0 instructions: 94000001 cycles: 42692398 heartbeat IPC: 2.20015 cumulative IPC: 2.2018 (Simulation time: 0 hr 3 min 9 sec) 
Heartbeat CPU 0 instructions: 95000003 cycles: 43071388 heartbeat IPC: 2.6386 cumulative IPC: 2.20564 (Simulation time: 0 hr 3 min 11 sec) 
Heartbeat CPU 0 instructions: 96000000 cycles: 43526434 heartbeat IPC: 2.19757 cumulative IPC: 2.20556 (Simulation time: 0 hr 3 min 13 sec) 
Heartbeat CPU 0 instructions: 97000000 cycles: 44067724 heartbeat IPC: 1.84744 cumulative IPC: 2.20116 (Simulation time: 0 hr 3 min 15 sec) 
Heartbeat CPU 0 instructions: 98000000 cycles: 44514410 heartbeat IPC: 2.23871 cumulative IPC: 2.20153 (Simulation time: 0 hr 3 min 17 sec) 
Heartbeat CPU 0 instructions: 99000000 cycles: 44988863 heartbeat IPC: 2.10769 cumulative IPC: 2.20054 (Simulation time: 0 hr 3 min 19 sec) 
*** Reached end of trace for Core: 0 Repeating trace: ../ChampSim_CRC2/trace/bzip2_10M.trace.gz
Heartbeat CPU 0 instructions: 100000000 cycles: 45429199 heartbeat IPC: 2.27099 cumulative IPC: 2.20123 (Simulation time: 0 hr 3 min 21 sec) 
Heartbeat CPU 0 instructions: 101000002 cycles: 45883731 heartbeat IPC: 2.20007 cumulative IPC: 2.20122 (Simulation time: 0 hr 3 min 23 sec) 
Heartbeat CPU 0 instructions: 102000001 cycles: 46336988 heartbeat IPC: 2.20625 cumulative IPC: 2.20127 (Simulation time: 0 hr 3 min 25 sec) 
Heartbeat CPU 0 instructions: 103000003 cycles: 46782889 heartbeat IPC: 2.24265 cumulative IPC: 2.20166 (Simulation time: 0 hr 3 min 27 sec) 
Heartbeat CPU 0 instructions: 104000000 cycles: 47237739 heartbeat IPC: 2.19852 cumulative IPC: 2.20163 (Simulation time: 0 hr 3 min 30 sec) 
Heartbeat CPU 0 instructions: 105000000 cycles: 47617165 heartbeat IPC: 2.63556 cumulative IPC: 2.20509 (Simulation time: 0 hr 3 min 31 sec) 
Heartbeat CPU 0 instructions: 106000002 cycles: 48072506 heartbeat IPC: 2.19616 cumulative IPC: 2.205 (Simulation time: 0 hr 3 min 33 sec) 
Heartbeat CPU 0 instructions: 107000000 cycles: 48613027 heartbeat IPC: 1.85006 cumulative IPC: 2.20106 (Simulation time: 0 hr 3 min 35 sec) 
Heartbeat CPU 0 instructions: 108000000 cycles: 49056049 heartbeat IPC: 2.25722 cumulative IPC: 2.20156 (Simulation time: 0 hr 3 min 37 sec) 
Heartbeat CPU 0 instructions: 109000000 cycles: 49531122 heartbeat IPC: 2.10494 cumulative IPC: 2.20064 (Simulation time: 0 hr 3 min 39 sec) 
*** Reached end of trace for Core: 0 Repeating trace: ../ChampSim_CRC2/trace/bzip2_10M.trace.gz
Heartbeat CPU 0 instructions: 110000000 cycles: 49971446 heartbeat IPC: 2.27105 cumulative IPC: 2.20126 (Simulation time: 0 hr 3 min 41 sec) 
Heartbeat CPU 0 instructions: 111000002 cycles: 50425101 heartbeat IPC: 2.20432 cumulative IPC: 2.20128 (Simulation time: 0 hr 3 min 44 sec) 
Heartbeat CPU 0 instructions: 112000000 cycles: 50878227 heartbeat IPC: 2.20689 cumulative IPC: 2.20133 (Simulation time: 0 hr 3 min 46 sec) 
Heartbeat CPU 0 instructions: 113000002 cycles: 51323894 heartbeat IPC: 2.24383 cumulative IPC: 2.2017 (Simulation time: 0 hr 3 min 48 sec) 
Heartbeat CPU 0 instructions: 114000001 cycles: 51778407 heartbeat IPC: 2.20015 cumulative IPC: 2.20169 (Simulation time: 0 hr 3 min 50 sec) 
Heartbeat CPU 0 instructions: 115000003 cycles: 52157380 heartbeat IPC: 2.63872 cumulative IPC: 2.20487 (Simulation time: 0 hr 3 min 51 sec) 
Heartbeat CPU 0 instructions: 116000000 cycles: 52612426 heartbeat IPC: 2.19757 cumulative IPC: 2.2048 (Simulation time: 0 hr 3 min 53 sec) 
Heartbeat CPU 0 instructions: 117000000 cycles: 53153716 heartbeat IPC: 1.84744 cumulative IPC: 2.20116 (Simulation time: 0 hr 3 min 56 sec) 
Heartbeat CPU 0 instructions: 118000000 cycles: 53600402 heartbeat IPC: 2.23871 cumulative IPC: 2.20148 (Simulation time: 0 hr 3 min 58 sec) 
Heartbeat CPU 0 instructions: 119000000 cycles: 54074855 heartbeat IPC: 2.10769 cumulative IPC: 2.20065 (Simulation time: 0 hr 4 min 0 sec) 
*** Reached end of trace for Core: 0 Repeating trace: ../ChampSim_CRC2/trace/bzip2_10M.trace.gz
Heartbeat CPU 0 instructions: 120000000 cycles: 54515191 heartbeat IPC: 2.27099 cumulative IPC: 2.20122 (Simulation time: 0 hr 4 min 2 sec) 
Heartbeat CPU 0 instructions: 121000002 cycles: 54969723 heartbeat IPC: 2.20007 cumulative IPC: 2.20121 (Simulation time: 0 hr 4 min 4 sec) 
Heartbeat CPU 0 instructions: 122000001 cycles: 55422980 heartbeat IPC: 2.20625 cumulative IPC: 2.20125 (Simulation time: 0 hr 4 min 6 sec) 
Heartbeat CPU 0 instructions: 123000003 cycles: 55868876 heartbeat IPC: 2.24268 cumulative IPC: 2.20158 (Simulation time: 0 hr 4 min 8 sec) 
Heartbeat CPU 0 instructions: 124000000 cycles: 56323724 heartbeat IPC: 2.19853 cumulative IPC: 2.20156 (Simulation time: 0 hr 4 min 11 sec) 
Heartbeat CPU 0 instructions: 125000000 cycles: 56703142 heartbeat IPC: 2.63562 cumulative IPC: 2.20446 (Simulation time: 0 hr 4 min 13 sec) 
Heartbeat CPU 0 instructions: 126000002 cycles: 57158483 heartbeat IPC: 2.19616 cumulative IPC: 2.2044 (Simulation time: 0 hr 4 min 15 sec) 
Heartbeat CPU 0 instructions: 127000000 cycles: 57699004 heartbeat IPC: 1.85006 cumulative IPC: 2.20108 (Simulation time: 0 hr 4 min 18 sec) 
Heartbeat CPU 0 instructions: 128000000 cycles: 58142026 heartbeat IPC: 2.25722 cumulative IPC: 2.20151 (Simulation time: 0 hr 4 min 20 sec) 
Heartbeat CPU 0 instructions: 129000000 cycles: 58617099 heartbeat IPC: 2.10494 cumulative IPC: 2.20072 (Simulation time: 0 hr 4 min 22 sec) 
*** Reached end of trace for Core: 0 Repeating trace: ../ChampSim_CRC2/trace/bzip2_10M.trace.gz
Heartbeat CPU 0 instructions: 130000000 cycles: 59057423 heartbeat IPC: 2.27105 cumulative IPC: 2.20125 (Simulation time: 0 hr 4 min 24 sec) 
Heartbeat CPU 0 instructions: 131000002 cycles: 59511078 heartbeat IPC: 2.20432 cumulative IPC: 2.20127 (Simulation time: 0 hr 4 min 26 sec) 
Heartbeat CPU 0 instructions: 132000000 cycles: 59964204 heartbeat IPC: 2.20689 cumulative IPC: 2.20131 (Simulation time: 0 hr 4 min 28 sec) 
Heartbeat CPU 0 instructions: 133000002 cycles: 60409871 heartbeat IPC: 2.24383 cumulative IPC: 2.20163 (Simulation time: 0 hr 4 min 30 sec) 
Heartbeat CPU 0 instructions: 134000001 cycles: 60864384 heartbeat IPC: 2.20015 cumulative IPC: 2.20162 (Simulation time: 0 hr 4 min 32 sec) 
Heartbeat CPU 0 instructions: 135000003 cycles: 61243399 heartbeat IPC: 2.63842 cumulative IPC: 2.20432 (Simulation time: 0 hr 4 min 34 sec) 
Heartbeat CPU 0 instructions: 136000000 cycles: 61698445 heartbeat IPC: 2.19757 cumulative IPC: 2.20427 (Simulation time: 0 hr 4 min 36 sec) 
Heartbeat CPU 0 instructions: 137000000 cycles: 62239735 heartbeat IPC: 1.84744 cumulative IPC: 2.20117 (Simulation time: 0 hr 4 min 39 sec) 
Heartbeat CPU 0 instructions: 138000000 cycles: 62686421 heartbeat IPC: 2.23871 cumulative IPC: 2.20143 (Simulation time: 0 hr 4 min 41 sec) 
Heartbeat CPU 0 instructions: 139000000 cycles: 63160874 heartbeat IPC: 2.10769 cumulative IPC: 2.20073 (Simulation time: 0 hr 4 min 43 sec) 
*** Reached end of trace for Core: 0 Repeating trace: ../ChampSim_CRC2/trace/bzip2_10M.trace.gz
Heartbeat CPU 0 instructions: 140000000 cycles: 63601210 heartbeat IPC: 2.27099 cumulative IPC: 2.20122 (Simulation time: 0 hr 4 min 45 sec) 
Heartbeat CPU 0 instructions: 141000002 cycles: 64055742 heartbeat IPC: 2.20007 cumulative IPC: 2.20121 (Simulation time: 0 hr 4 min 47 sec) 
Heartbeat CPU 0 instructions: 142000001 cycles: 64508999 heartbeat IPC: 2.20625 cumulative IPC: 2.20124 (Simulation time: 0 hr 4 min 49 sec) 
Heartbeat CPU 0 instructions: 143000003 cycles: 64954896 heartbeat IPC: 2.24267 cumulative IPC: 2.20153 (Simulation time: 0 hr 4 min 51 sec) 
Heartbeat CPU 0 instructions: 144000000 cycles: 65409744 heartbeat IPC: 2.19853 cumulative IPC: 2.20151 (Simulation time: 0 hr 4 min 53 sec) 
Heartbeat CPU 0 instructions: 145000000 cycles: 65789169 heartbeat IPC: 2.63557 cumulative IPC: 2.20401 (Simulation time: 0 hr 4 min 55 sec) 
Heartbeat CPU 0 instructions: 146000002 cycles: 66244510 heartbeat IPC: 2.19616 cumulative IPC: 2.20396 (Simulation time: 0 hr 4 min 57 sec) 
Heartbeat CPU 0 instructions: 147000000 cycles: 66785030 heartbeat IPC: 1.85007 cumulative IPC: 2.20109 (Simulation time: 0 hr 4 min 59 sec) 
Heartbeat CPU 0 instructions: 148000000 cycles: 67228053 heartbeat IPC: 2.25722 cumulative IPC: 2.20146 (Simulation time: 0 hr 5 min 1 sec) 
Heartbeat CPU 0 instructions: 149000000 cycles: 67703126 heartbeat IPC: 2.10494 cumulative IPC: 2.20078 (Simulation time: 0 hr 5 min 3 sec) 
*** Reached end of trace for Core: 0 Repeating trace: ../ChampSim_CRC2/trace/bzip2_10M.trace.gz
Heartbeat CPU 0 instructions: 150000000 cycles: 68143450 heartbeat IPC: 2.27105 cumulative IPC: 2.20124 (Simulation time: 0 hr 5 min 5 sec) 
Heartbeat CPU 0 instructions: 151000002 cycles: 68597105 heartbeat IPC: 2.20432 cumulative IPC: 2.20126 (Simulation time: 0 hr 5 min 7 sec) 
Heartbeat CPU 0 instructions: 152000000 cycles: 69050231 heartbeat IPC: 2.20689 cumulative IPC: 2.2013 (Simulation time: 0 hr 5 min 9 sec) 
Heartbeat CPU 0 instructions: 153000002 cycles: 69495897 heartbeat IPC: 2.24384 cumulative IPC: 2.20157 (Simulation time: 0 hr 5 min 12 sec) 
Heartbeat CPU 0 instructions: 154000001 cycles: 69950412 heartbeat IPC: 2.20015 cumulative IPC: 2.20156 (Simulation time: 0 hr 5 min 14 sec) 
Heartbeat CPU 0 instructions: 155000003 cycles: 70329402 heartbeat IPC: 2.6386 cumulative IPC: 2.20391 (Simulation time: 0 hr 5 min 15 sec) 
Heartbeat CPU 0 instructions: 156000000 cycles: 70784448 heartbeat IPC: 2.19757 cumulative IPC: 2.20387 (Simulation time: 0 hr 5 min 17 sec) 
Heartbeat CPU 0 instructions: 157000000 cycles: 71325738 heartbeat IPC: 1.84744 cumulative IPC: 2.20117 (Simulation time: 0 hr 5 min 20 sec) 
Heartbeat CPU 0 instructions: 158000000 cycles: 71772424 heartbeat IPC: 2.23871 cumulative IPC: 2.2014 (Simulation time: 0 hr 5 min 22 sec) 
Heartbeat CPU 0 instructions: 159000000 cycles: 72246877 heartbeat IPC: 2.10769 cumulative IPC: 2.20079 (Simulation time: 0 hr 5 min 24 sec) 
*** Reached end of trace for Core: 0 Repeating trace: ../ChampSim_CRC2/trace/bzip2_10M.trace.gz
Heartbeat CPU 0 instructions: 160000000 cycles: 72687213 heartbeat IPC: 2.27099 cumulative IPC: 2.20121 (Simulation time: 0 hr 5 min 26 sec) 
Heartbeat CPU 0 instructions: 161000002 cycles: 73141745 heartbeat IPC: 2.20007 cumulative IPC: 2.20121 (Simulation time: 0 hr 5 min 28 sec) 
Heartbeat CPU 0 instructions: 162000001 cycles: 73595002 heartbeat IPC: 2.20625 cumulative IPC: 2.20124 (Simulation time: 0 hr 5 min 30 sec) 
Heartbeat CPU 0 instructions: 163000003 cycles: 74040897 heartbeat IPC: 2.24268 cumulative IPC: 2.20149 (Simulation time: 0 hr 5 min 32 sec) 
Heartbeat CPU 0 instructions: 164000000 cycles: 74495747 heartbeat IPC: 2.19852 cumulative IPC: 2.20147 (Simulation time: 0 hr 5 min 34 sec) 
Heartbeat CPU 0 instructions: 165000000 cycles: 74875172 heartbeat IPC: 2.63557 cumulative IPC: 2.20367 (Simulation time: 0 hr 5 min 35 sec) 
Heartbeat CPU 0 instructions: 166000002 cycles: 75330513 heartbeat IPC: 2.19616 cumulative IPC: 2.20362 (Simulation time: 0 hr 5 min 37 sec) 
Heartbeat CPU 0 instructions: 167000000 cycles: 75871034 heartbeat IPC: 1.85006 cumulative IPC: 2.2011 (Simulation time: 0 hr 5 min 40 sec) 
Heartbeat CPU 0 instructions: 168000000 cycles: 76314056 heartbeat IPC: 2.25722 cumulative IPC: 2.20143 (Simulation time: 0 hr 5 min 42 sec) 
Heartbeat CPU 0 instructions: 169000000 cycles: 76789129 heartbeat IPC: 2.10494 cumulative IPC: 2.20083 (Simulation time: 0 hr 5 min 44 sec) 
*** Reached end of trace for Core: 0 Repeating trace: ../ChampSim_CRC2/trace/bzip2_10M.trace.gz
Heartbeat CPU 0 instructions: 170000000 cycles: 77229453 heartbeat IPC: 2.27105 cumulative IPC: 2.20123 (Simulation time: 0 hr 5 min 46 sec) 
Heartbeat CPU 0 instructions: 171000002 cycles: 77683108 heartbeat IPC: 2.20432 cumulative IPC: 2.20125 (Simulation time: 0 hr 5 min 48 sec) 
Heartbeat CPU 0 instructions: 172000000 cycles: 78136234 heartbeat IPC: 2.20689 cumulative IPC: 2.20128 (Simulation time: 0 hr 5 min 50 sec) 
Heartbeat CPU 0 instructions: 173000002 cycles: 78581901 heartbeat IPC: 2.24383 cumulative IPC: 2.20152 (Simulation time: 0 hr 5 min 52 sec) 
Heartbeat CPU 0 instructions: 174000001 cycles: 79036414 heartbeat IPC: 2.20015 cumulative IPC: 2.20152 (Simulation time: 0 hr 5 min 54 sec) 
Heartbeat CPU 0 instructions: 175000003 cycles: 79415390 heartbeat IPC: 2.63869 cumulative IPC: 2.2036 (Simulation time: 0 hr 5 min 56 sec) 
Heartbeat CPU 0 instructions: 176000000 cycles: 79870436 heartbeat IPC: 2.19757 cumulative IPC: 2.20357 (Simulation time: 0 hr 5 min 58 sec) 
Heartbeat CPU 0 instructions: 177000000 cycles: 80411726 heartbeat IPC: 1.84744 cumulative IPC: 2.20117 (Simulation time: 0 hr 6 min 0 sec) 
Heartbeat CPU 0 instructions: 178000000 cycles: 80858412 heartbeat IPC: 2.23871 cumulative IPC: 2.20138 (Simulation time: 0 hr 6 min 2 sec) 
Heartbeat CPU 0 instructions: 179000000 cycles: 81332865 heartbeat IPC: 2.10769 cumulative IPC: 2.20083 (Simulation time: 0 hr 6 min 4 sec) 
*** Reached end of trace for Core: 0 Repeating trace: ../ChampSim_CRC2/trace/bzip2_10M.trace.gz
Heartbeat CPU 0 instructions: 180000000 cycles: 81773201 heartbeat IPC: 2.27099 cumulative IPC: 2.20121 (Simulation time: 0 hr 6 min 6 sec) 
Heartbeat CPU 0 instructions: 181000002 cycles: 82227733 heartbeat IPC: 2.20007 cumulative IPC: 2.2012 (Simulation time: 0 hr 6 min 8 sec) 
Heartbeat CPU 0 instructions: 182000001 cycles: 82680990 heartbeat IPC: 2.20625 cumulative IPC: 2.20123 (Simulation time: 0 hr 6 min 10 sec) 
Heartbeat CPU 0 instructions: 183000003 cycles: 83126886 heartbeat IPC: 2.24268 cumulative IPC: 2.20145 (Simulation time: 0 hr 6 min 12 sec) 
Heartbeat CPU 0 instructions: 184000000 cycles: 83581734 heartbeat IPC: 2.19853 cumulative IPC: 2.20144 (Simulation time: 0 hr 6 min 14 sec) 
Heartbeat CPU 0 instructions: 185000000 cycles: 83961153 heartbeat IPC: 2.63561 cumulative IPC: 2.2034 (Simulation time: 0 hr 6 min 16 sec) 
Heartbeat CPU 0 instructions: 186000002 cycles: 84416494 heartbeat IPC: 2.19616 cumulative IPC: 2.20336 (Simulation time: 0 hr 6 min 18 sec) 
Heartbeat CPU 0 instructions: 187000000 cycles: 84957015 heartbeat IPC: 1.85006 cumulative IPC: 2.20111 (Simulation time: 0 hr 6 min 20 sec) 
Heartbeat CPU 0 instructions: 188000000 cycles: 85400037 heartbeat IPC: 2.25722 cumulative IPC: 2.2014 (Simulation time: 0 hr 6 min 22 sec) 
Heartbeat CPU 0 instructions: 189000000 cycles: 85875110 heartbeat IPC: 2.10494 cumulative IPC: 2.20087 (Simulation time: 0 hr 6 min 24 sec) 
*** Reached end of trace for Core: 0 Repeating trace: ../ChampSim_CRC2/trace/bzip2_10M.trace.gz
Heartbeat CPU 0 instructions: 190000000 cycles: 86315434 heartbeat IPC: 2.27105 cumulative IPC: 2.20123 (Simulation time: 0 hr 6 min 26 sec) 
Heartbeat CPU 0 instructions: 191000002 cycles: 86769089 heartbeat IPC: 2.20432 cumulative IPC: 2.20124 (Simulation time: 0 hr 6 min 28 sec) 
Heartbeat CPU 0 instructions: 192000000 cycles: 87222215 heartbeat IPC: 2.20689 cumulative IPC: 2.20127 (Simulation time: 0 hr 6 min 30 sec) 
Heartbeat CPU 0 instructions: 193000002 cycles: 87667882 heartbeat IPC: 2.24383 cumulative IPC: 2.20149 (Simulation time: 0 hr 6 min 32 sec) 
Heartbeat CPU 0 instructions: 194000001 cycles: 88122397 heartbeat IPC: 2.20015 cumulative IPC: 2.20148 (Simulation time: 0 hr 6 min 34 sec) 
Heartbeat CPU 0 instructions: 195000003 cycles: 88501409 heartbeat IPC: 2.63844 cumulative IPC: 2.20335 (Simulation time: 0 hr 6 min 36 sec) 
Heartbeat CPU 0 instructions: 196000000 cycles: 88956455 heartbeat IPC: 2.19757 cumulative IPC: 2.20333 (Simulation time: 0 hr 6 min 38 sec) 
Heartbeat CPU 0 instructions: 197000000 cycles: 89497745 heartbeat IPC: 1.84744 cumulative IPC: 2.20117 (Simulation time: 0 hr 6 min 40 sec) 
Heartbeat CPU 0 instructions: 198000000 cycles: 89944431 heartbeat IPC: 2.23871 cumulative IPC: 2.20136 (Simulation time: 0 hr 6 min 42 sec) 
Heartbeat CPU 0 instructions: 199000000 cycles: 90418884 heartbeat IPC: 2.10769 cumulative IPC: 2.20087 (Simulation time: 0 hr 6 min 44 sec) 
*** Reached end of trace for Core: 0 Repeating trace: ../ChampSim_CRC2/trace/bzip2_10M.trace.gz
Heartbeat CPU 0 instructions: 200000000 cycles: 90859220 heartbeat IPC: 2.27099 cumulative IPC: 2.20121 (Simulation time: 0 hr 6 min 46 sec) 

Warmup complete CPU 0 instructions: 200000001 cycles: 90859221 (Simulation time: 0 hr 6 min 46 sec) 

Heartbeat CPU 0 instructions: 201000002 cycles: 92255239 heartbeat IPC: 0.716324 cumulative IPC: 0.716324 (Simulation time: 0 hr 6 min 48 sec) 
Heartbeat CPU 0 instructions: 202000001 cycles: 93737235 heartbeat IPC: 0.674765 cumulative IPC: 0.694924 (Simulation time: 0 hr 6 min 50 sec) 
Heartbeat CPU 0 instructions: 203000002 cycles: 95224056 heartbeat IPC: 0.672577 cumulative IPC: 0.687311 (Simulation time: 0 hr 6 min 52 sec) 
Heartbeat CPU 0 instructions: 204000000 cycles: 96335318 heartbeat IPC: 0.899876 cumulative IPC: 0.730447 (Simulation time: 0 hr 6 min 54 sec) 
Heartbeat CPU 0 instructions: 205000002 cycles: 97234443 heartbeat IPC: 1.11219 cumulative IPC: 0.784287 (Simulation time: 0 hr 6 min 56 sec) 
Heartbeat CPU 0 instructions: 206000002 cycles: 98151806 heartbeat IPC: 1.09008 cumulative IPC: 0.822754 (Simulation time: 0 hr 6 min 58 sec) 
Heartbeat CPU 0 instructions: 207000000 cycles: 98956647 heartbeat IPC: 1.24248 cumulative IPC: 0.864472 (Simulation time: 0 hr 7 min 0 sec) 
Heartbeat CPU 0 instructions: 208000000 cycles: 100337912 heartbeat IPC: 0.723974 cumulative IPC: 0.843998 (Simulation time: 0 hr 7 min 2 sec) 
Heartbeat CPU 0 instructions: 209000002 cycles: 101672158 heartbeat IPC: 0.749488 cumulative IPC: 0.832336 (Simulation time: 0 hr 7 min 4 sec) 
*** Reached end of trace for Core: 0 Repeating trace: ../ChampSim_CRC2/trace/bzip2_10M.trace.gz
Heartbeat CPU 0 instructions: 210000001 cycles: 103243963 heartbeat IPC: 0.636211 cumulative IPC: 0.807445 (Simulation time: 0 hr 7 min 6 sec) 
Heartbeat CPU 0 instructions: 211000002 cycles: 104639160 heartbeat IPC: 0.716745 cumulative IPC: 0.798262 (Simulation time: 0 hr 7 min 8 sec) 
Heartbeat CPU 0 instructions: 212000000 cycles: 106120528 heartbeat IPC: 0.67505 cumulative IPC: 0.786302 (Simulation time: 0 hr 7 min 10 sec) 
Heartbeat CPU 0 instructions: 213000002 cycles: 107607065 heartbeat IPC: 0.672706 cumulative IPC: 0.776219 (Simulation time: 0 hr 7 min 12 sec) 
Heartbeat CPU 0 instructions: 214000002 cycles: 108717881 heartbeat IPC: 0.900239 cumulative IPC: 0.783933 (Simulation time: 0 hr 7 min 14 sec) 
Heartbeat CPU 0 instructions: 215000000 cycles: 109618155 heartbeat IPC: 1.11077 cumulative IPC: 0.799619 (Simulation time: 0 hr 7 min 16 sec) 
Heartbeat CPU 0 instructions: 216000000 cycles: 110536188 heartbeat IPC: 1.08929 cumulative IPC: 0.813133 (Simulation time: 0 hr 7 min 18 sec) 
Heartbeat CPU 0 instructions: 217000000 cycles: 111341992 heartbeat IPC: 1.241 cumulative IPC: 0.829966 (Simulation time: 0 hr 7 min 20 sec) 
Heartbeat CPU 0 instructions: 218000000 cycles: 112723908 heartbeat IPC: 0.723633 cumulative IPC: 0.823245 (Simulation time: 0 hr 7 min 22 sec) 
Heartbeat CPU 0 instructions: 219000002 cycles: 114058564 heartbeat IPC: 0.749258 cumulative IPC: 0.818989 (Simulation time: 0 hr 7 min 24 sec) 
*** Reached end of trace for Core: 0 Repeating trace: ../ChampSim_CRC2/trace/bzip2_10M.trace.gz
Heartbeat CPU 0 instructions: 220000000 cycles: 115631905 heartbeat IPC: 0.635589 cumulative IPC: 0.807341 (Simulation time: 0 hr 7 min 26 sec) 
Heartbeat CPU 0 instructions: 221000002 cycles: 117028158 heartbeat IPC: 0.716204 cumulative IPC: 0.802478 (Simulation time: 0 hr 7 min 28 sec) 
Heartbeat CPU 0 instructions: 222000001 cycles: 118509976 heartbeat IPC: 0.674846 cumulative IPC: 0.795638 (Simulation time: 0 hr 7 min 30 sec) 
Heartbeat CPU 0 instructions: 223000002 cycles: 119995939 heartbeat IPC: 0.672965 cumulative IPC: 0.789382 (Simulation time: 0 hr 7 min 32 sec) 
Heartbeat CPU 0 instructions: 224000000 cycles: 121106996 heartbeat IPC: 0.900042 cumulative IPC: 0.793447 (Simulation time: 0 hr 7 min 34 sec) 
Heartbeat CPU 0 instructions: 225000002 cycles: 122005399 heartbeat IPC: 1.11309 cumulative IPC: 0.802667 (Simulation time: 0 hr 7 min 36 sec) 
Heartbeat CPU 0 instructions: 226000002 cycles: 122922652 heartbeat IPC: 1.09021 cumulative IPC: 0.810893 (Simulation time: 0 hr 7 min 38 sec) 
Heartbeat CPU 0 instructions: 227000000 cycles: 123727739 heartbeat IPC: 1.2421 cumulative IPC: 0.821455 (Simulation time: 0 hr 7 min 40 sec) 
Heartbeat CPU 0 instructions: 228000000 cycles: 125109069 heartbeat IPC: 0.72394 cumulative IPC: 0.817522 (Simulation time: 0 hr 7 min 42 sec) 
Heartbeat CPU 0 instructions: 229000002 cycles: 126443315 heartbeat IPC: 0.749488 cumulative IPC: 0.814971 (Simulation time: 0 hr 7 min 44 sec) 
*** Reached end of trace for Core: 0 Repeating trace: ../ChampSim_CRC2/trace/bzip2_10M.trace.gz
Heartbeat CPU 0 instructions: 230000001 cycles: 128015120 heartbeat IPC: 0.636211 cumulative IPC: 0.807409 (Simulation time: 0 hr 7 min 45 sec) 
Heartbeat CPU 0 instructions: 231000002 cycles: 129410317 heartbeat IPC: 0.716745 cumulative IPC: 0.804128 (Simulation time: 0 hr 7 min 47 sec) 
Heartbeat CPU 0 instructions: 232000000 cycles: 130891685 heartbeat IPC: 0.67505 cumulative IPC: 0.799351 (Simulation time: 0 hr 7 min 49 sec) 
Heartbeat CPU 0 instructions: 233000002 cycles: 132378581 heartbeat IPC: 0.672543 cumulative IPC: 0.79481 (Simulation time: 0 hr 7 min 51 sec) 
Heartbeat CPU 0 instructions: 234000002 cycles: 133489542 heartbeat IPC: 0.900122 cumulative IPC: 0.797554 (Simulation time: 0 hr 7 min 53 sec) 
Heartbeat CPU 0 instructions: 235000000 cycles: 134389358 heartbeat IPC: 1.11134 cumulative IPC: 0.804041 (Simulation time: 0 hr 7 min 55 sec) 
Heartbeat CPU 0 instructions: 236000000 cycles: 135307501 heartbeat IPC: 1.08915 cumulative IPC: 0.80993 (Simulation time: 0 hr 7 min 57 sec) 
Heartbeat CPU 0 instructions: 237000000 cycles: 136113454 heartbeat IPC: 1.24077 cumulative IPC: 0.817603 (Simulation time: 0 hr 7 min 59 sec) 
Heartbeat CPU 0 instructions: 238000000 cycles: 137495403 heartbeat IPC: 0.723616 cumulative IPC: 0.814818 (Simulation time: 0 hr 8 min 1 sec) 
Heartbeat CPU 0 instructions: 239000002 cycles: 138829892 heartbeat IPC: 0.749352 cumulative IPC: 0.812997 (Simulation time: 0 hr 8 min 3 sec) 
*** Reached end of trace for Core: 0 Repeating trace: ../ChampSim_CRC2/trace/bzip2_10M.trace.gz
Heartbeat CPU 0 instructions: 240000000 cycles: 140403233 heartbeat IPC: 0.635589 cumulative IPC: 0.807363 (Simulation time: 0 hr 8 min 5 sec) 
Heartbeat CPU 0 instructions: 241000002 cycles: 141799671 heartbeat IPC: 0.716109 cumulative IPC: 0.804861 (Simulation time: 0 hr 8 min 7 sec) 
Heartbeat CPU 0 instructions: 242000001 cycles: 143281667 heartbeat IPC: 0.674765 cumulative IPC: 0.801184 (Simulation time: 0 hr 8 min 9 sec) 
Heartbeat CPU 0 instructions: 243000002 cycles: 144767773 heartbeat IPC: 0.6729 cumulative IPC: 0.797647 (Simulation time: 0 hr 8 min 11 sec) 
Heartbeat CPU 0 instructions: 244000000 cycles: 145879195 heartbeat IPC: 0.899746 cumulative IPC: 0.79971 (Simulation time: 0 hr 8 min 13 sec) 
Heartbeat CPU 0 instructions: 245000002 cycles: 146778251 heartbeat IPC: 1.11228 cumulative IPC: 0.804735 (Simulation time: 0 hr 8 min 15 sec) 
Heartbeat CPU 0 instructions: 246000002 cycles: 147695394 heartbeat IPC: 1.09034 cumulative IPC: 0.809344 (Simulation time: 0 hr 8 min 17 sec) 
Heartbeat CPU 0 instructions: 247000000 cycles: 148500210 heartbeat IPC: 1.24252 cumulative IPC: 0.815392 (Simulation time: 0 hr 8 min 19 sec) 
Heartbeat CPU 0 instructions: 248000000 cycles: 149881814 heartbeat IPC: 0.723796 cumulative IPC: 0.813248 (Simulation time: 0 hr 8 min 21 sec) 
Heartbeat CPU 0 instructions: 249000002 cycles: 151216060 heartbeat IPC: 0.749488 cumulative IPC: 0.811838 (Simulation time: 0 hr 8 min 23 sec) 
*** Reached end of trace for Core: 0 Repeating trace: ../ChampSim_CRC2/trace/bzip2_10M.trace.gz
Heartbeat CPU 0 instructions: 250000001 cycles: 152787865 heartbeat IPC: 0.636211 cumulative IPC: 0.807381 (Simulation time: 0 hr 8 min 25 sec) 
Heartbeat CPU 0 instructions: 251000002 cycles: 154182877 heartbeat IPC: 0.71684 cumulative IPC: 0.805386 (Simulation time: 0 hr 8 min 27 sec) 
Heartbeat CPU 0 instructions: 252000000 cycles: 155664067 heartbeat IPC: 0.675131 cumulative IPC: 0.802409 (Simulation time: 0 hr 8 min 29 sec) 
Heartbeat CPU 0 instructions: 253000002 cycles: 157150536 heartbeat IPC: 0.672737 cumulative IPC: 0.799501 (Simulation time: 0 hr 8 min 31 sec) 
Heartbeat CPU 0 instructions: 254000002 cycles: 158261243 heartbeat IPC: 0.900327 cumulative IPC: 0.801163 (Simulation time: 0 hr 8 min 33 sec) 
Heartbeat CPU 0 instructions: 255000000 cycles: 159160091 heartbeat IPC: 1.11253 cumulative IPC: 0.805261 (Simulation time: 0 hr 8 min 35 sec) 
Heartbeat CPU 0 instructions: 256000000 cycles: 160078124 heartbeat IPC: 1.08929 cumulative IPC: 0.809028 (Simulation time: 0 hr 8 min 37 sec) 
Heartbeat CPU 0 instructions: 257000000 cycles: 160884335 heartbeat IPC: 1.24037 cumulative IPC: 0.813994 (Simulation time: 0 hr 8 min 39 sec) 
Heartbeat CPU 0 instructions: 258000000 cycles: 162266419 heartbeat IPC: 0.723545 cumulative IPC: 0.812243 (Simulation time: 0 hr 8 min 41 sec) 
Heartbeat CPU 0 instructions: 259000002 cycles: 163600908 heartbeat IPC: 0.749352 cumulative IPC: 0.811089 (Simulation time: 0 hr 8 min 43 sec) 
*** Reached end of trace for Core: 0 Repeating trace: ../ChampSim_CRC2/trace/bzip2_10M.trace.gz
Heartbeat CPU 0 instructions: 260000000 cycles: 165174249 heartbeat IPC: 0.635589 cumulative IPC: 0.807374 (Simulation time: 0 hr 8 min 45 sec) 
Heartbeat CPU 0 instructions: 261000002 cycles: 166570687 heartbeat IPC: 0.716109 cumulative IPC: 0.80569 (Simulation time: 0 hr 8 min 47 sec) 
Heartbeat CPU 0 instructions: 262000001 cycles: 168052683 heartbeat IPC: 0.674765 cumulative IPC: 0.803177 (Simulation time: 0 hr 8 min 49 sec) 
Heartbeat CPU 0 instructions: 263000002 cycles: 169539324 heartbeat IPC: 0.672658 cumulative IPC: 0.800711 (Simulation time: 0 hr 8 min 51 sec) 
Heartbeat CPU 0 instructions: 264000000 cycles: 170650231 heartbeat IPC: 0.900164 cumulative IPC: 0.802095 (Simulation time: 0 hr 8 min 53 sec) 
Heartbeat CPU 0 instructions: 265000002 cycles: 171549777 heartbeat IPC: 1.11167 cumulative IPC: 0.805547 (Simulation time: 0 hr 8 min 56 sec) 
Heartbeat CPU 0 instructions: 266000002 cycles: 172467140 heartbeat IPC: 1.09008 cumulative IPC: 0.808745 (Simulation time: 0 hr 8 min 58 sec) 
Heartbeat CPU 0 instructions: 267000000 cycles: 173272315 heartbeat IPC: 1.24196 cumulative IPC: 0.812978 (Simulation time: 0 hr 9 min 0 sec) 
Heartbeat CPU 0 instructions: 268000000 cycles: 174653570 heartbeat IPC: 0.723979 cumulative IPC: 0.811511 (Simulation time: 0 hr 9 min 2 sec) 
Heartbeat CPU 0 instructions: 269000002 cycles: 175987816 heartbeat IPC: 0.749488 cumulative IPC: 0.810538 (Simulation time: 0 hr 9 min 4 sec) 
*** Reached end of trace for Core: 0 Repeating trace: ../ChampSim_CRC2/trace/bzip2_10M.trace.gz
Heartbeat CPU 0 instructions: 270000001 cycles: 177559621 heartbeat IPC: 0.636211 cumulative IPC: 0.807378 (Simulation time: 0 hr 9 min 6 sec) 
Heartbeat CPU 0 instructions: 271000002 cycles: 178954818 heartbeat IPC: 0.716745 cumulative IPC: 0.805943 (Simulation time: 0 hr 9 min 8 sec) 
Heartbeat CPU 0 instructions: 272000000 cycles: 180436186 heartbeat IPC: 0.67505 cumulative IPC: 0.803778 (Simulation time: 0 hr 9 min 10 sec) 
Heartbeat CPU 0 instructions: 273000002 cycles: 181922459 heartbeat IPC: 0.672825 cumulative IPC: 0.801641 (Simulation time: 0 hr 9 min 12 sec) 
Heartbeat CPU 0 instructions: 274000002 cycles: 183033651 heartbeat IPC: 0.899934 cumulative IPC: 0.802826 (Simulation time: 0 hr 9 min 14 sec) 
Heartbeat CPU 0 instructions: 275000000 cycles: 183933131 heartbeat IPC: 1.11175 cumulative IPC: 0.805811 (Simulation time: 0 hr 9 min 16 sec) 
Heartbeat CPU 0 instructions: 276000000 cycles: 184851274 heartbeat IPC: 1.08915 cumulative IPC: 0.808579 (Simulation time: 0 hr 9 min 18 sec) 
Heartbeat CPU 0 instructions: 277000000 cycles: 185657382 heartbeat IPC: 1.24053 cumulative IPC: 0.812252 (Simulation time: 0 hr 9 min 20 sec) 
Heartbeat CPU 0 instructions: 278000000 cycles: 187039078 heartbeat IPC: 0.723748 cumulative IPC: 0.810981 (Simulation time: 0 hr 9 min 22 sec) 
Heartbeat CPU 0 instructions: 279000002 cycles: 188373567 heartbeat IPC: 0.749352 cumulative IPC: 0.810137 (Simulation time: 0 hr 9 min 24 sec) 
*** Reached end of trace for Core: 0 Repeating trace: ../ChampSim_CRC2/trace/bzip2_10M.trace.gz
Heartbeat CPU 0 instructions: 280000000 cycles: 189946908 heartbeat IPC: 0.635589 cumulative IPC: 0.807366 (Simulation time: 0 hr 9 min 26 sec) 
Heartbeat CPU 0 instructions: 281000002 cycles: 191343161 heartbeat IPC: 0.716204 cumulative IPC: 0.806099 (Simulation time: 0 hr 9 min 28 sec) 
Heartbeat CPU 0 instructions: 282000001 cycles: 192824979 heartbeat IPC: 0.674846 cumulative IPC: 0.804192 (Simulation time: 0 hr 9 min 30 sec) 
Heartbeat CPU 0 instructions: 283000002 cycles: 194311206 heartbeat IPC: 0.672845 cumulative IPC: 0.802305 (Simulation time: 0 hr 9 min 32 sec) 
Heartbeat CPU 0 instructions: 284000000 cycles: 195422389 heartbeat IPC: 0.89994 cumulative IPC: 0.803342 (Simulation time: 0 hr 9 min 34 sec) 
Heartbeat CPU 0 instructions: 285000002 cycles: 196321065 heartbeat IPC: 1.11275 cumulative IPC: 0.805979 (Simulation time: 0 hr 9 min 36 sec) 
Heartbeat CPU 0 instructions: 286000002 cycles: 197238208 heartbeat IPC: 1.09034 cumulative IPC: 0.80843 (Simulation time: 0 hr 9 min 38 sec) 
Heartbeat CPU 0 instructions: 287000000 cycles: 198043434 heartbeat IPC: 1.24188 cumulative IPC: 0.811687 (Simulation time: 0 hr 9 min 40 sec) 
Heartbeat CPU 0 instructions: 288000000 cycles: 199424874 heartbeat IPC: 0.723882 cumulative IPC: 0.810569 (Simulation time: 0 hr 9 min 42 sec) 
Heartbeat CPU 0 instructions: 289000002 cycles: 200759120 heartbeat IPC: 0.749488 cumulative IPC: 0.809828 (Simulation time: 0 hr 9 min 44 sec) 
*** Reached end of trace for Core: 0 Repeating trace: ../ChampSim_CRC2/trace/bzip2_10M.trace.gz
Heartbeat CPU 0 instructions: 290000001 cycles: 202330925 heartbeat IPC: 0.636211 cumulative IPC: 0.80738 (Simulation time: 0 hr 9 min 46 sec) 
Heartbeat CPU 0 instructions: 291000002 cycles: 203726122 heartbeat IPC: 0.716745 cumulative IPC: 0.806259 (Simulation time: 0 hr 9 min 47 sec) 
Heartbeat CPU 0 instructions: 292000000 cycles: 205207490 heartbeat IPC: 0.67505 cumulative IPC: 0.80456 (Simulation time: 0 hr 9 min 49 sec) 
Heartbeat CPU 0 instructions: 293000002 cycles: 206694372 heartbeat IPC: 0.67255 cumulative IPC: 0.802865 (Simulation time: 0 hr 9 min 51 sec) 
Heartbeat CPU 0 instructions: 294000002 cycles: 207805432 heartbeat IPC: 0.900041 cumulative IPC: 0.803788 (Simulation time: 0 hr 9 min 53 sec) 
Heartbeat CPU 0 instructions: 295000000 cycles: 208705198 heartbeat IPC: 1.1114 cumulative IPC: 0.806137 (Simulation time: 0 hr 9 min 55 sec) 
Heartbeat CPU 0 instructions: 296000000 cycles: 209623341 heartbeat IPC: 1.08915 cumulative IPC: 0.808325 (Simulation time: 0 hr 9 min 57 sec) 
Heartbeat CPU 0 instructions: 297000000 cycles: 210429294 heartbeat IPC: 1.24077 cumulative IPC: 0.81124 (Simulation time: 0 hr 9 min 59 sec) 
Heartbeat CPU 0 instructions: 298000000 cycles: 211811243 heartbeat IPC: 0.723616 cumulative IPC: 0.810239 (Simulation time: 0 hr 10 min 1 sec) 
Heartbeat CPU 0 instructions: 299000002 cycles: 213145732 heartbeat IPC: 0.749352 cumulative IPC: 0.809574 (Simulation time: 0 hr 10 min 3 sec) 
*** Reached end of trace for Core: 0 Repeating trace: ../ChampSim_CRC2/trace/bzip2_10M.trace.gz
Heartbeat CPU 0 instructions: 300000000 cycles: 214719073 heartbeat IPC: 0.635589 cumulative IPC: 0.807364 (Simulation time: 0 hr 10 min 5 sec) 
Heartbeat CPU 0 instructions: 301000002 cycles: 216115511 heartbeat IPC: 0.716109 cumulative IPC: 0.806347 (Simulation time: 0 hr 10 min 7 sec) 
Heartbeat CPU 0 instructions: 302000001 cycles: 217597507 heartbeat IPC: 0.674765 cumulative IPC: 0.804808 (Simulation time: 0 hr 10 min 9 sec) 
Heartbeat CPU 0 instructions: 303000002 cycles: 219083824 heartbeat IPC: 0.672805 cumulative IPC: 0.803278 (Simulation time: 0 hr 10 min 11 sec) 
Heartbeat CPU 0 instructions: 304000000 cycles: 220195094 heartbeat IPC: 0.89987 cumulative IPC: 0.804108 (Simulation time: 0 hr 10 min 13 sec) 
Heartbeat CPU 0 instructions: 305000002 cycles: 221094725 heartbeat IPC: 1.11157 cumulative IPC: 0.806232 (Simulation time: 0 hr 10 min 15 sec) 
Heartbeat CPU 0 instructions: 306000002 cycles: 222011868 heartbeat IPC: 1.09034 cumulative IPC: 0.808219 (Simulation time: 0 hr 10 min 17 sec) 
Heartbeat CPU 0 instructions: 307000000 cycles: 222816793 heartbeat IPC: 1.24235 cumulative IPC: 0.810867 (Simulation time: 0 hr 10 min 19 sec) 
Heartbeat CPU 0 instructions: 308000000 cycles: 224198587 heartbeat IPC: 0.723697 cumulative IPC: 0.809963 (Simulation time: 0 hr 10 min 21 sec) 
Heartbeat CPU 0 instructions: 309000002 cycles: 225532613 heartbeat IPC: 0.749612 cumulative IPC: 0.809366 (Simulation time: 0 hr 10 min 23 sec) 
*** Reached end of trace for Core: 0 Repeating trace: ../ChampSim_CRC2/trace/bzip2_10M.trace.gz
Heartbeat CPU 0 instructions: 310000001 cycles: 227104418 heartbeat IPC: 0.636211 cumulative IPC: 0.807368 (Simulation time: 0 hr 10 min 25 sec) 
Heartbeat CPU 0 instructions: 311000002 cycles: 228499430 heartbeat IPC: 0.71684 cumulative IPC: 0.80645 (Simulation time: 0 hr 10 min 27 sec) 
Heartbeat CPU 0 instructions: 312000000 cycles: 229980620 heartbeat IPC: 0.675131 cumulative IPC: 0.805052 (Simulation time: 0 hr 10 min 29 sec) 
Heartbeat CPU 0 instructions: 313000002 cycles: 231466592 heartbeat IPC: 0.672962 cumulative IPC: 0.803656 (Simulation time: 0 hr 10 min 31 sec) 
Heartbeat CPU 0 instructions: 314000002 cycles: 232577380 heartbeat IPC: 0.900262 cumulative IPC: 0.804413 (Simulation time: 0 hr 10 min 33 sec) 
Heartbeat CPU 0 instructions: 315000000 cycles: 233475792 heartbeat IPC: 1.11307 cumulative IPC: 0.806358 (Simulation time: 0 hr 10 min 35 sec) 
Heartbeat CPU 0 instructions: 316000000 cycles: 234393935 heartbeat IPC: 1.08915 cumulative IPC: 0.808167 (Simulation time: 0 hr 10 min 37 sec) 
Heartbeat CPU 0 instructions: 317000000 cycles: 235200095 heartbeat IPC: 1.24045 cumulative IPC: 0.810581 (Simulation time: 0 hr 10 min 39 sec) 
Heartbeat CPU 0 instructions: 318000000 cycles: 236582100 heartbeat IPC: 0.723586 cumulative IPC: 0.809756 (Simulation time: 0 hr 10 min 41 sec) 
Heartbeat CPU 0 instructions: 319000002 cycles: 237916589 heartbeat IPC: 0.749352 cumulative IPC: 0.809208 (Simulation time: 0 hr 10 min 43 sec) 
*** Reached end of trace for Core: 0 Repeating trace: ../ChampSim_CRC2/trace/bzip2_10M.trace.gz
Heartbeat CPU 0 instructions: 320000000 cycles: 239489930 heartbeat IPC: 0.635589 cumulative IPC: 0.80737 (Simulation time: 0 hr 10 min 45 sec) 
Heartbeat CPU 0 instructions: 321000002 cycles: 240886368 heartbeat IPC: 0.716109 cumulative IPC: 0.806521 (Simulation time: 0 hr 10 min 47 sec) 
Heartbeat CPU 0 instructions: 322000001 cycles: 242368715 heartbeat IPC: 0.674605 cumulative IPC: 0.80523 (Simulation time: 0 hr 10 min 48 sec) 
Heartbeat CPU 0 instructions: 323000002 cycles: 243854869 heartbeat IPC: 0.672878 cumulative IPC: 0.803944 (Simulation time: 0 hr 10 min 50 sec) 
Heartbeat CPU 0 instructions: 324000000 cycles: 244966428 heartbeat IPC: 0.899636 cumulative IPC: 0.804635 (Simulation time: 0 hr 10 min 52 sec) 
Heartbeat CPU 0 instructions: 325000002 cycles: 245866373 heartbeat IPC: 1.11118 cumulative IPC: 0.806414 (Simulation time: 0 hr 10 min 54 sec) 
Heartbeat CPU 0 instructions: 326000002 cycles: 246783516 heartbeat IPC: 1.09034 cumulative IPC: 0.808084 (Simulation time: 0 hr 10 min 56 sec) 
Heartbeat CPU 0 instructions: 327000000 cycles: 247588348 heartbeat IPC: 1.24249 cumulative IPC: 0.810315 (Simulation time: 0 hr 10 min 58 sec) 
Heartbeat CPU 0 instructions: 328000000 cycles: 248969713 heartbeat IPC: 0.723922 cumulative IPC: 0.80956 (Simulation time: 0 hr 11 min 0 sec) 
Heartbeat CPU 0 instructions: 329000002 cycles: 250303959 heartbeat IPC: 0.749488 cumulative IPC: 0.809058 (Simulation time: 0 hr 11 min 2 sec) 
*** Reached end of trace for Core: 0 Repeating trace: ../ChampSim_CRC2/trace/bzip2_10M.trace.gz
Heartbeat CPU 0 instructions: 330000001 cycles: 251875764 heartbeat IPC: 0.636211 cumulative IPC: 0.80737 (Simulation time: 0 hr 11 min 4 sec) 
Heartbeat CPU 0 instructions: 331000002 cycles: 253270961 heartbeat IPC: 0.716745 cumulative IPC: 0.806592 (Simulation time: 0 hr 11 min 6 sec) 
Heartbeat CPU 0 instructions: 332000000 cycles: 254752329 heartbeat IPC: 0.67505 cumulative IPC: 0.805403 (Simulation time: 0 hr 11 min 8 sec) 
Heartbeat CPU 0 instructions: 333000002 cycles: 256238818 heartbeat IPC: 0.672727 cumulative IPC: 0.80421 (Simulation time: 0 hr 11 min 10 sec) 
Heartbeat CPU 0 instructions: 334000002 cycles: 257349561 heartbeat IPC: 0.900298 cumulative IPC: 0.804852 (Simulation time: 0 hr 11 min 12 sec) 
Heartbeat CPU 0 instructions: 335000000 cycles: 258249314 heartbeat IPC: 1.11141 cumulative IPC: 0.806499 (Simulation time: 0 hr 11 min 14 sec) 
Heartbeat CPU 0 instructions: 336000000 cycles: 259167347 heartbeat IPC: 1.08929 cumulative IPC: 0.808042 (Simulation time: 0 hr 11 min 16 sec) 
Heartbeat CPU 0 instructions: 337000000 cycles: 259973220 heartbeat IPC: 1.24089 cumulative IPC: 0.810104 (Simulation time: 0 hr 11 min 18 sec) 
Heartbeat CPU 0 instructions: 338000000 cycles: 261355246 heartbeat IPC: 0.723575 cumulative IPC: 0.809403 (Simulation time: 0 hr 11 min 20 sec) 
Heartbeat CPU 0 instructions: 339000002 cycles: 262689735 heartbeat IPC: 0.749352 cumulative IPC: 0.808937 (Simulation time: 0 hr 11 min 22 sec) 
*** Reached end of trace for Core: 0 Repeating trace: ../ChampSim_CRC2/trace/bzip2_10M.trace.gz
Heartbeat CPU 0 instructions: 340000000 cycles: 264263076 heartbeat IPC: 0.635589 cumulative IPC: 0.807364 (Simulation time: 0 hr 11 min 24 sec) 
Heartbeat CPU 0 instructions: 341000002 cycles: 265659329 heartbeat IPC: 0.716204 cumulative IPC: 0.806636 (Simulation time: 0 hr 11 min 26 sec) 
Heartbeat CPU 0 instructions: 342000001 cycles: 267141147 heartbeat IPC: 0.674846 cumulative IPC: 0.805528 (Simulation time: 0 hr 11 min 28 sec) 
Heartbeat CPU 0 instructions: 343000002 cycles: 268627447 heartbeat IPC: 0.672812 cumulative IPC: 0.804418 (Simulation time: 0 hr 11 min 30 sec) 
Heartbeat CPU 0 instructions: 344000000 cycles: 269738551 heartbeat IPC: 0.900004 cumulative IPC: 0.805012 (Simulation time: 0 hr 11 min 32 sec) 
Heartbeat CPU 0 instructions: 345000002 cycles: 270637785 heartbeat IPC: 1.11206 cumulative IPC: 0.806548 (Simulation time: 0 hr 11 min 34 sec) 
Heartbeat CPU 0 instructions: 346000002 cycles: 271554928 heartbeat IPC: 1.09034 cumulative IPC: 0.807988 (Simulation time: 0 hr 11 min 36 sec) 
Heartbeat CPU 0 instructions: 347000000 cycles: 272359854 heartbeat IPC: 1.24235 cumulative IPC: 0.809915 (Simulation time: 0 hr 11 min 38 sec) 
Heartbeat CPU 0 instructions: 348000000 cycles: 273741453 heartbeat IPC: 0.723799 cumulative IPC: 0.809264 (Simulation time: 0 hr 11 min 40 sec) 
Heartbeat CPU 0 instructions: 349000002 cycles: 275075699 heartbeat IPC: 0.749488 cumulative IPC: 0.808831 (Simulation time: 0 hr 11 min 42 sec) 
*** Reached end of trace for Core: 0 Repeating trace: ../ChampSim_CRC2/trace/bzip2_10M.trace.gz
Heartbeat CPU 0 instructions: 350000001 cycles: 276647504 heartbeat IPC: 0.636211 cumulative IPC: 0.807371 (Simulation time: 0 hr 11 min 44 sec) 
Heartbeat CPU 0 instructions: 351000002 cycles: 278042701 heartbeat IPC: 0.716745 cumulative IPC: 0.806695 (Simulation time: 0 hr 11 min 45 sec) 
Heartbeat CPU 0 instructions: 352000000 cycles: 279524069 heartbeat IPC: 0.67505 cumulative IPC: 0.805661 (Simulation time: 0 hr 11 min 47 sec) 
Heartbeat CPU 0 instructions: 353000002 cycles: 281010901 heartbeat IPC: 0.672572 cumulative IPC: 0.804621 (Simulation time: 0 hr 11 min 49 sec) 
Heartbeat CPU 0 instructions: 354000002 cycles: 282121681 heartbeat IPC: 0.900268 cumulative IPC: 0.805176 (Simulation time: 0 hr 11 min 51 sec) 
Heartbeat CPU 0 instructions: 355000000 cycles: 283020330 heartbeat IPC: 1.11278 cumulative IPC: 0.806615 (Simulation time: 0 hr 11 min 53 sec) 
Heartbeat CPU 0 instructions: 356000000 cycles: 283938473 heartbeat IPC: 1.08915 cumulative IPC: 0.807958 (Simulation time: 0 hr 11 min 55 sec) 
Heartbeat CPU 0 instructions: 357000000 cycles: 284744387 heartbeat IPC: 1.24083 cumulative IPC: 0.809758 (Simulation time: 0 hr 11 min 57 sec) 
Heartbeat CPU 0 instructions: 358000000 cycles: 286126207 heartbeat IPC: 0.723683 cumulative IPC: 0.809149 (Simulation time: 0 hr 11 min 59 sec) 
Heartbeat CPU 0 instructions: 359000002 cycles: 287460865 heartbeat IPC: 0.749257 cumulative IPC: 0.808742 (Simulation time: 0 hr 12 min 1 sec) 
*** Reached end of trace for Core: 0 Repeating trace: ../ChampSim_CRC2/trace/bzip2_10M.trace.gz
Heartbeat CPU 0 instructions: 360000000 cycles: 289034206 heartbeat IPC: 0.635589 cumulative IPC: 0.807367 (Simulation time: 0 hr 12 min 3 sec) 
Heartbeat CPU 0 instructions: 361000002 cycles: 290430644 heartbeat IPC: 0.716109 cumulative IPC: 0.806729 (Simulation time: 0 hr 12 min 5 sec) 
Heartbeat CPU 0 instructions: 362000001 cycles: 291912640 heartbeat IPC: 0.674765 cumulative IPC: 0.805756 (Simulation time: 0 hr 12 min 7 sec) 
Heartbeat CPU 0 instructions: 363000002 cycles: 293398333 heartbeat IPC: 0.673087 cumulative IPC: 0.804783 (Simulation time: 0 hr 12 min 9 sec) 
Heartbeat CPU 0 instructions: 364000000 cycles: 294509745 heartbeat IPC: 0.899755 cumulative IPC: 0.805301 (Simulation time: 0 hr 12 min 11 sec) 
Heartbeat CPU 0 instructions: 365000002 cycles: 295409670 heartbeat IPC: 1.11121 cumulative IPC: 0.806647 (Simulation time: 0 hr 12 min 13 sec) 
Heartbeat CPU 0 instructions: 366000002 cycles: 296326923 heartbeat IPC: 1.09021 cumulative IPC: 0.807913 (Simulation time: 0 hr 12 min 15 sec) 
Heartbeat CPU 0 instructions: 367000000 cycles: 297131764 heartbeat IPC: 1.24248 cumulative IPC: 0.809608 (Simulation time: 0 hr 12 min 17 sec) 
Heartbeat CPU 0 instructions: 368000000 cycles: 298512916 heartbeat IPC: 0.724033 cumulative IPC: 0.809039 (Simulation time: 0 hr 12 min 19 sec) 
Heartbeat CPU 0 instructions: 369000002 cycles: 299847162 heartbeat IPC: 0.749488 cumulative IPC: 0.808659 (Simulation time: 0 hr 12 min 21 sec) 
*** Reached end of trace for Core: 0 Repeating trace: ../ChampSim_CRC2/trace/bzip2_10M.trace.gz
Heartbeat CPU 0 instructions: 370000001 cycles: 301418967 heartbeat IPC: 0.636211 cumulative IPC: 0.807372 (Simulation time: 0 hr 12 min 23 sec) 
Heartbeat CPU 0 instructions: 371000002 cycles: 302813979 heartbeat IPC: 0.71684 cumulative IPC: 0.806776 (Simulation time: 0 hr 12 min 25 sec) 
Heartbeat CPU 0 instructions: 372000000 cycles: 304295169 heartbeat IPC: 0.675131 cumulative IPC: 0.805862 (Simulation time: 0 hr 12 min 27 sec) 
Heartbeat CPU 0 instructions: 373000002 cycles: 305781648 heartbeat IPC: 0.672732 cumulative IPC: 0.804942 (Simulation time: 0 hr 12 min 29 sec) 
Heartbeat CPU 0 instructions: 374000002 cycles: 306892858 heartbeat IPC: 0.89992 cumulative IPC: 0.80543 (Simulation time: 0 hr 12 min 31 sec) 
Heartbeat CPU 0 instructions: 375000000 cycles: 307790490 heartbeat IPC: 1.11404 cumulative IPC: 0.806707 (Simulation time: 0 hr 12 min 33 sec) 
Heartbeat CPU 0 instructions: 376000000 cycles: 308708523 heartbeat IPC: 1.08929 cumulative IPC: 0.807898 (Simulation time: 0 hr 12 min 35 sec) 
Heartbeat CPU 0 instructions: 377000000 cycles: 309514757 heartbeat IPC: 1.24033 cumulative IPC: 0.809492 (Simulation time: 0 hr 12 min 37 sec) 
Heartbeat CPU 0 instructions: 378000000 cycles: 310896762 heartbeat IPC: 0.723586 cumulative IPC: 0.808953 (Simulation time: 0 hr 12 min 39 sec) 
Heartbeat CPU 0 instructions: 379000002 cycles: 312231417 heartbeat IPC: 0.749259 cumulative IPC: 0.808593 (Simulation time: 0 hr 12 min 41 sec) 
*** Reached end of trace for Core: 0 Repeating trace: ../ChampSim_CRC2/trace/bzip2_10M.trace.gz
Heartbeat CPU 0 instructions: 380000000 cycles: 313804758 heartbeat IPC: 0.635589 cumulative IPC: 0.807372 (Simulation time: 0 hr 12 min 42 sec) 
Heartbeat CPU 0 instructions: 381000002 cycles: 315201196 heartbeat IPC: 0.716109 cumulative IPC: 0.806804 (Simulation time: 0 hr 12 min 44 sec) 
Heartbeat CPU 0 instructions: 382000001 cycles: 316683192 heartbeat IPC: 0.674765 cumulative IPC: 0.805937 (Simulation time: 0 hr 12 min 46 sec) 
Heartbeat CPU 0 instructions: 383000002 cycles: 318169281 heartbeat IPC: 0.672908 cumulative IPC: 0.805068 (Simulation time: 0 hr 12 min 48 sec) 
Heartbeat CPU 0 instructions: 384000000 cycles: 319280352 heartbeat IPC: 0.900031 cumulative IPC: 0.80553 (Simulation time: 0 hr 12 min 50 sec) 
Heartbeat CPU 0 instructions: 385000002 cycles: 320179247 heartbeat IPC: 1.11248 cumulative IPC: 0.806733 (Simulation time: 0 hr 12 min 52 sec) 
Heartbeat CPU 0 instructions: 386000002 cycles: 321096390 heartbeat IPC: 1.09034 cumulative IPC: 0.807863 (Simulation time: 0 hr 12 min 54 sec) 
Heartbeat CPU 0 instructions: 387000000 cycles: 321901504 heartbeat IPC: 1.24206 cumulative IPC: 0.809376 (Simulation time: 0 hr 12 min 56 sec) 
Heartbeat CPU 0 instructions: 388000000 cycles: 323282759 heartbeat IPC: 0.723979 cumulative IPC: 0.808868 (Simulation time: 0 hr 12 min 58 sec) 
Heartbeat CPU 0 instructions: 389000002 cycles: 324617005 heartbeat IPC: 0.749488 cumulative IPC: 0.808529 (Simulation time: 0 hr 13 min 0 sec) 
*** Reached end of trace for Core: 0 Repeating trace: ../ChampSim_CRC2/trace/bzip2_10M.trace.gz
Heartbeat CPU 0 instructions: 390000001 cycles: 326188810 heartbeat IPC: 0.636211 cumulative IPC: 0.807378 (Simulation time: 0 hr 13 min 2 sec) 
Heartbeat CPU 0 instructions: 391000002 cycles: 327584007 heartbeat IPC: 0.716745 cumulative IPC: 0.806844 (Simulation time: 0 hr 13 min 4 sec) 
Heartbeat CPU 0 instructions: 392000000 cycles: 329065375 heartbeat IPC: 0.67505 cumulative IPC: 0.806024 (Simulation time: 0 hr 13 min 6 sec) 
Heartbeat CPU 0 instructions: 393000002 cycles: 330551357 heartbeat IPC: 0.672957 cumulative IPC: 0.8052 (Simulation time: 0 hr 13 min 8 sec) 
Heartbeat CPU 0 instructions: 394000002 cycles: 331662672 heartbeat IPC: 0.899835 cumulative IPC: 0.805636 (Simulation time: 0 hr 13 min 10 sec) 
Heartbeat CPU 0 instructions: 395000000 cycles: 332562038 heartbeat IPC: 1.11189 cumulative IPC: 0.806776 (Simulation time: 0 hr 13 min 12 sec) 
Heartbeat CPU 0 instructions: 396000000 cycles: 333480071 heartbeat IPC: 1.08929 cumulative IPC: 0.807845 (Simulation time: 0 hr 13 min 14 sec) 
Heartbeat CPU 0 instructions: 397000000 cycles: 334285944 heartbeat IPC: 1.24089 cumulative IPC: 0.809278 (Simulation time: 0 hr 13 min 16 sec) 
Heartbeat CPU 0 instructions: 398000000 cycles: 335667970 heartbeat IPC: 0.723575 cumulative IPC: 0.808795 (Simulation time: 0 hr 13 min 18 sec) 
Heartbeat CPU 0 instructions: 399000002 cycles: 337002459 heartbeat IPC: 0.749352 cumulative IPC: 0.808472 (Simulation time: 0 hr 13 min 20 sec) 
*** Reached end of trace for Core: 0 Repeating trace: ../ChampSim_CRC2/trace/bzip2_10M.trace.gz
Heartbeat CPU 0 instructions: 400000000 cycles: 338575800 heartbeat IPC: 0.635589 cumulative IPC: 0.807374 (Simulation time: 0 hr 13 min 22 sec) 
Heartbeat CPU 0 instructions: 401000002 cycles: 339972053 heartbeat IPC: 0.716204 cumulative IPC: 0.806863 (Simulation time: 0 hr 13 min 24 sec) 
Heartbeat CPU 0 instructions: 402000001 cycles: 341453871 heartbeat IPC: 0.674846 cumulative IPC: 0.806083 (Simulation time: 0 hr 13 min 26 sec) 
Heartbeat CPU 0 instructions: 403000002 cycles: 342940029 heartbeat IPC: 0.672877 cumulative IPC: 0.805297 (Simulation time: 0 hr 13 min 28 sec) 
Heartbeat CPU 0 instructions: 404000000 cycles: 344051733 heartbeat IPC: 0.899518 cumulative IPC: 0.805711 (Simulation time: 0 hr 13 min 30 sec) 
Heartbeat CPU 0 instructions: 405000002 cycles: 344950579 heartbeat IPC: 1.11254 cumulative IPC: 0.806796 (Simulation time: 0 hr 13 min 32 sec) 
Heartbeat CPU 0 instructions: 406000002 cycles: 345867942 heartbeat IPC: 1.09008 cumulative IPC: 0.807815 (Simulation time: 0 hr 13 min 34 sec) 
Heartbeat CPU 0 instructions: 407000000 cycles: 346672868 heartbeat IPC: 1.24235 cumulative IPC: 0.809183 (Simulation time: 0 hr 13 min 36 sec) 
Heartbeat CPU 0 instructions: 408000000 cycles: 348054467 heartbeat IPC: 0.723799 cumulative IPC: 0.808724 (Simulation time: 0 hr 13 min 38 sec) 
Heartbeat CPU 0 instructions: 409000002 cycles: 349388713 heartbeat IPC: 0.749488 cumulative IPC: 0.808418 (Simulation time: 0 hr 13 min 40 sec) 
*** Reached end of trace for Core: 0 Repeating trace: ../ChampSim_CRC2/trace/bzip2_10M.trace.gz
Heartbeat CPU 0 instructions: 410000001 cycles: 350960518 heartbeat IPC: 0.636211 cumulative IPC: 0.807378 (Simulation time: 0 hr 13 min 42 sec) 
Heartbeat CPU 0 instructions: 411000002 cycles: 352355715 heartbeat IPC: 0.716745 cumulative IPC: 0.806894 (Simulation time: 0 hr 13 min 44 sec) 
Heartbeat CPU 0 instructions: 412000000 cycles: 353837083 heartbeat IPC: 0.67505 cumulative IPC: 0.806152 (Simulation time: 0 hr 13 min 45 sec) 
Heartbeat CPU 0 instructions: 413000002 cycles: 355323893 heartbeat IPC: 0.672582 cumulative IPC: 0.805401 (Simulation time: 0 hr 13 min 47 sec) 
Heartbeat CPU 0 instructions: 414000002 cycles: 356434731 heartbeat IPC: 0.900221 cumulative IPC: 0.805797 (Simulation time: 0 hr 13 min 49 sec) 
Heartbeat CPU 0 instructions: 415000000 cycles: 357334171 heartbeat IPC: 1.1118 cumulative IPC: 0.80683 (Simulation time: 0 hr 13 min 51 sec) 
Heartbeat CPU 0 instructions: 416000000 cycles: 358252204 heartbeat IPC: 1.08929 cumulative IPC: 0.8078 (Simulation time: 0 hr 13 min 53 sec) 
Heartbeat CPU 0 instructions: 417000000 cycles: 359058451 heartbeat IPC: 1.24031 cumulative IPC: 0.8091 (Simulation time: 0 hr 13 min 55 sec) 
Heartbeat CPU 0 instructions: 418000000 cycles: 360440449 heartbeat IPC: 0.72359 cumulative IPC: 0.808662 (Simulation time: 0 hr 13 min 57 sec) 
Heartbeat CPU 0 instructions: 419000002 cycles: 361774938 heartbeat IPC: 0.749352 cumulative IPC: 0.80837 (Simulation time: 0 hr 13 min 59 sec) 
*** Reached end of trace for Core: 0 Repeating trace: ../ChampSim_CRC2/trace/bzip2_10M.trace.gz
Heartbeat CPU 0 instructions: 420000000 cycles: 363348279 heartbeat IPC: 0.635589 cumulative IPC: 0.807372 (Simulation time: 0 hr 14 min 1 sec) 
Heartbeat CPU 0 instructions: 421000002 cycles: 364744717 heartbeat IPC: 0.716109 cumulative IPC: 0.806907 (Simulation time: 0 hr 14 min 3 sec) 
Heartbeat CPU 0 instructions: 422000001 cycles: 366226713 heartbeat IPC: 0.674765 cumulative IPC: 0.806195 (Simulation time: 0 hr 14 min 5 sec) 
Heartbeat CPU 0 instructions: 423000002 cycles: 367713091 heartbeat IPC: 0.672777 cumulative IPC: 0.805479 (Simulation time: 0 hr 14 min 7 sec) 
Heartbeat CPU 0 instructions: 424000000 cycles: 368824467 heartbeat IPC: 0.899784 cumulative IPC: 0.805856 (Simulation time: 0 hr 14 min 9 sec) 
Heartbeat CPU 0 instructions: 425000002 cycles: 369724011 heartbeat IPC: 1.11168 cumulative IPC: 0.806843 (Simulation time: 0 hr 14 min 11 sec) 
Heartbeat CPU 0 instructions: 426000002 cycles: 370641264 heartbeat IPC: 1.09021 cumulative IPC: 0.807772 (Simulation time: 0 hr 14 min 13 sec) 
Heartbeat CPU 0 instructions: 427000000 cycles: 371446300 heartbeat IPC: 1.24218 cumulative IPC: 0.809018 (Simulation time: 0 hr 14 min 15 sec) 
Heartbeat CPU 0 instructions: 428000000 cycles: 372827572 heartbeat IPC: 0.72397 cumulative IPC: 0.808601 (Simulation time: 0 hr 14 min 17 sec) 
Heartbeat CPU 0 instructions: 429000002 cycles: 374161818 heartbeat IPC: 0.749488 cumulative IPC: 0.808323 (Simulation time: 0 hr 14 min 19 sec) 
*** Reached end of trace for Core: 0 Repeating trace: ../ChampSim_CRC2/trace/bzip2_10M.trace.gz
Heartbeat CPU 0 instructions: 430000001 cycles: 375733623 heartbeat IPC: 0.636211 cumulative IPC: 0.807373 (Simulation time: 0 hr 14 min 21 sec) 
Heartbeat CPU 0 instructions: 431000002 cycles: 377128635 heartbeat IPC: 0.71684 cumulative IPC: 0.806932 (Simulation time: 0 hr 14 min 23 sec) 
Heartbeat CPU 0 instructions: 432000000 cycles: 378609825 heartbeat IPC: 0.675131 cumulative IPC: 0.806254 (Simulation time: 0 hr 14 min 25 sec) 
Heartbeat CPU 0 instructions: 433000002 cycles: 380096056 heartbeat IPC: 0.672844 cumulative IPC: 0.805568 (Simulation time: 0 hr 14 min 27 sec) 
Heartbeat CPU 0 instructions: 434000002 cycles: 381206754 heartbeat IPC: 0.900335 cumulative IPC: 0.805931 (Simulation time: 0 hr 14 min 29 sec) 
Heartbeat CPU 0 instructions: 435000000 cycles: 382104194 heartbeat IPC: 1.11428 cumulative IPC: 0.806881 (Simulation time: 0 hr 14 min 31 sec) 
Heartbeat CPU 0 instructions: 436000000 cycles: 383022227 heartbeat IPC: 1.08929 cumulative IPC: 0.807768 (Simulation time: 0 hr 14 min 33 sec) 
Heartbeat CPU 0 instructions: 437000000 cycles: 383827968 heartbeat IPC: 1.24109 cumulative IPC: 0.80896 (Simulation time: 0 hr 14 min 35 sec) 
Heartbeat CPU 0 instructions: 438000000 cycles: 385209753 heartbeat IPC: 0.723702 cumulative IPC: 0.80856 (Simulation time: 0 hr 14 min 37 sec) 
Heartbeat CPU 0 instructions: 439000002 cycles: 386544242 heartbeat IPC: 0.749352 cumulative IPC: 0.808293 (Simulation time: 0 hr 14 min 39 sec) 
*** Reached end of trace for Core: 0 Repeating trace: ../ChampSim_CRC2/trace/bzip2_10M.trace.gz
Heartbeat CPU 0 instructions: 440000000 cycles: 388117583 heartbeat IPC: 0.635589 cumulative IPC: 0.807378 (Simulation time: 0 hr 14 min 41 sec) 
Heartbeat CPU 0 instructions: 441000002 cycles: 389514021 heartbeat IPC: 0.716109 cumulative IPC: 0.806952 (Simulation time: 0 hr 14 min 43 sec) 
Heartbeat CPU 0 instructions: 442000001 cycles: 390996017 heartbeat IPC: 0.674765 cumulative IPC: 0.806299 (Simulation time: 0 hr 14 min 45 sec) 
Heartbeat CPU 0 instructions: 443000002 cycles: 392482683 heartbeat IPC: 0.672647 cumulative IPC: 0.80564 (Simulation time: 0 hr 14 min 47 sec) 
Heartbeat CPU 0 instructions: 444000000 cycles: 393594318 heartbeat IPC: 0.899574 cumulative IPC: 0.805985 (Simulation time: 0 hr 14 min 49 sec) 
Heartbeat CPU 0 instructions: 445000002 cycles: 394493458 heartbeat IPC: 1.11218 cumulative IPC: 0.806892 (Simulation time: 0 hr 14 min 51 sec) 
Heartbeat CPU 0 instructions: 446000002 cycles: 395410601 heartbeat IPC: 1.09034 cumulative IPC: 0.807745 (Simulation time: 0 hr 14 min 53 sec) 
Heartbeat CPU 0 instructions: 447000000 cycles: 396215192 heartbeat IPC: 1.24286 cumulative IPC: 0.808892 (Simulation time: 0 hr 14 min 55 sec) 
Heartbeat CPU 0 instructions: 448000000 cycles: 397596717 heartbeat IPC: 0.723838 cumulative IPC: 0.808509 (Simulation time: 0 hr 14 min 57 sec) 
Heartbeat CPU 0 instructions: 449000002 cycles: 398930963 heartbeat IPC: 0.749488 cumulative IPC: 0.808253 (Simulation time: 0 hr 14 min 59 sec) 
*** Reached end of trace for Core: 0 Repeating trace: ../ChampSim_CRC2/trace/bzip2_10M.trace.gz
Heartbeat CPU 0 instructions: 450000001 cycles: 400502768 heartbeat IPC: 0.636211 cumulative IPC: 0.80738 (Simulation time: 0 hr 15 min 1 sec) 
Heartbeat CPU 0 instructions: 451000002 cycles: 401897965 heartbeat IPC: 0.716745 cumulative IPC: 0.806973 (Simulation time: 0 hr 15 min 2 sec) 
Heartbeat CPU 0 instructions: 452000000 cycles: 403379333 heartbeat IPC: 0.67505 cumulative IPC: 0.806348 (Simulation time: 0 hr 15 min 4 sec) 
Heartbeat CPU 0 instructions: 453000002 cycles: 404865652 heartbeat IPC: 0.672804 cumulative IPC: 0.805716 (Simulation time: 0 hr 15 min 6 sec) 
Heartbeat CPU 0 instructions: 454000002 cycles: 405977038 heartbeat IPC: 0.899777 cumulative IPC: 0.806048 (Simulation time: 0 hr 15 min 8 sec) 
Heartbeat CPU 0 instructions: 455000000 cycles: 406876651 heartbeat IPC: 1.11159 cumulative IPC: 0.806917 (Simulation time: 0 hr 15 min 10 sec) 
Heartbeat CPU 0 instructions: 456000000 cycles: 407794684 heartbeat IPC: 1.08929 cumulative IPC: 0.807735 (Simulation time: 0 hr 15 min 12 sec) 
Heartbeat CPU 0 instructions: 457000000 cycles: 408600557 heartbeat IPC: 1.24089 cumulative IPC: 0.808834 (Simulation time: 0 hr 15 min 14 sec) 
Heartbeat CPU 0 instructions: 458000000 cycles: 409982583 heartbeat IPC: 0.723575 cumulative IPC: 0.808465 (Simulation time: 0 hr 15 min 16 sec) 
Heartbeat CPU 0 instructions: 459000002 cycles: 411317072 heartbeat IPC: 0.749352 cumulative IPC: 0.808219 (Simulation time: 0 hr 15 min 18 sec) 
*** Reached end of trace for Core: 0 Repeating trace: ../ChampSim_CRC2/trace/bzip2_10M.trace.gz
Heartbeat CPU 0 instructions: 460000000 cycles: 412890413 heartbeat IPC: 0.635589 cumulative IPC: 0.807375 (Simulation time: 0 hr 15 min 20 sec) 
Heartbeat CPU 0 instructions: 461000002 cycles: 414286666 heartbeat IPC: 0.716204 cumulative IPC: 0.806982 (Simulation time: 0 hr 15 min 22 sec) 
Heartbeat CPU 0 instructions: 462000001 cycles: 415768484 heartbeat IPC: 0.674846 cumulative IPC: 0.806379 (Simulation time: 0 hr 15 min 24 sec) 
Heartbeat CPU 0 instructions: 463000002 cycles: 417254784 heartbeat IPC: 0.672812 cumulative IPC: 0.805771 (Simulation time: 0 hr 15 min 26 sec) 
Heartbeat CPU 0 instructions: 464000000 cycles: 418365376 heartbeat IPC: 0.900419 cumulative IPC: 0.806092 (Simulation time: 0 hr 15 min 28 sec) 
Heartbeat CPU 0 instructions: 465000002 cycles: 419264272 heartbeat IPC: 1.11248 cumulative IPC: 0.80693 (Simulation time: 0 hr 15 min 30 sec) 
Heartbeat CPU 0 instructions: 466000002 cycles: 420181415 heartbeat IPC: 1.09034 cumulative IPC: 0.80772 (Simulation time: 0 hr 15 min 32 sec) 
Heartbeat CPU 0 instructions: 467000000 cycles: 420986055 heartbeat IPC: 1.24279 cumulative IPC: 0.80878 (Simulation time: 0 hr 15 min 34 sec) 
Heartbeat CPU 0 instructions: 468000000 cycles: 422367529 heartbeat IPC: 0.723864 cumulative IPC: 0.808426 (Simulation time: 0 hr 15 min 36 sec) 
Heartbeat CPU 0 instructions: 469000002 cycles: 423701775 heartbeat IPC: 0.749488 cumulative IPC: 0.80819 (Simulation time: 0 hr 15 min 38 sec) 
*** Reached end of trace for Core: 0 Repeating trace: ../ChampSim_CRC2/trace/bzip2_10M.trace.gz
Heartbeat CPU 0 instructions: 470000001 cycles: 425273580 heartbeat IPC: 0.636211 cumulative IPC: 0.807382 (Simulation time: 0 hr 15 min 40 sec) 
Heartbeat CPU 0 instructions: 471000002 cycles: 426668777 heartbeat IPC: 0.716745 cumulative IPC: 0.807005 (Simulation time: 0 hr 15 min 42 sec) 
Heartbeat CPU 0 instructions: 472000000 cycles: 428150145 heartbeat IPC: 0.67505 cumulative IPC: 0.806426 (Simulation time: 0 hr 15 min 44 sec) 
Heartbeat CPU 0 instructions: 473000002 cycles: 429636816 heartbeat IPC: 0.672645 cumulative IPC: 0.805838 (Simulation time: 0 hr 15 min 46 sec) 
Heartbeat CPU 0 instructions: 474000002 cycles: 430748003 heartbeat IPC: 0.899939 cumulative IPC: 0.806146 (Simulation time: 0 hr 15 min 48 sec) 
Heartbeat CPU 0 instructions: 475000000 cycles: 431646553 heartbeat IPC: 1.1129 cumulative IPC: 0.806955 (Simulation time: 0 hr 15 min 50 sec) 
Heartbeat CPU 0 instructions: 476000000 cycles: 432564696 heartbeat IPC: 1.08915 cumulative IPC: 0.807713 (Simulation time: 0 hr 15 min 52 sec) 
Heartbeat CPU 0 instructions: 477000000 cycles: 433370582 heartbeat IPC: 1.24087 cumulative IPC: 0.808732 (Simulation time: 0 hr 15 min 54 sec) 
Heartbeat CPU 0 instructions: 478000000 cycles: 434752643 heartbeat IPC: 0.723557 cumulative IPC: 0.80839 (Simulation time: 0 hr 15 min 57 sec) 
Heartbeat CPU 0 instructions: 479000002 cycles: 436087132 heartbeat IPC: 0.749352 cumulative IPC: 0.808162 (Simulation time: 0 hr 15 min 59 sec) 
*** Reached end of trace for Core: 0 Repeating trace: ../ChampSim_CRC2/trace/bzip2_10M.trace.gz
Heartbeat CPU 0 instructions: 480000000 cycles: 437660473 heartbeat IPC: 0.635589 cumulative IPC: 0.807379 (Simulation time: 0 hr 16 min 0 sec) 
Heartbeat CPU 0 instructions: 481000002 cycles: 439056911 heartbeat IPC: 0.716109 cumulative IPC: 0.807013 (Simulation time: 0 hr 16 min 2 sec) 
Heartbeat CPU 0 instructions: 482000001 cycles: 440538907 heartbeat IPC: 0.674765 cumulative IPC: 0.806452 (Simulation time: 0 hr 16 min 4 sec) 
Heartbeat CPU 0 instructions: 483000002 cycles: 442025169 heartbeat IPC: 0.67283 cumulative IPC: 0.805887 (Simulation time: 0 hr 16 min 6 sec) 
Heartbeat CPU 0 instructions: 484000000 cycles: 443136328 heartbeat IPC: 0.899959 cumulative IPC: 0.806184 (Simulation time: 0 hr 16 min 8 sec) 
Heartbeat CPU 0 instructions: 485000002 cycles: 444034898 heartbeat IPC: 1.11288 cumulative IPC: 0.806964 (Simulation time: 0 hr 16 min 10 sec) 
Heartbeat CPU 0 instructions: 486000002 cycles: 444952041 heartbeat IPC: 1.09034 cumulative IPC: 0.807698 (Simulation time: 0 hr 16 min 12 sec) 
Heartbeat CPU 0 instructions: 487000000 cycles: 445756859 heartbeat IPC: 1.24251 cumulative IPC: 0.808684 (Simulation time: 0 hr 16 min 14 sec) 
Heartbeat CPU 0 instructions: 488000000 cycles: 447138010 heartbeat IPC: 0.724034 cumulative IPC: 0.808356 (Simulation time: 0 hr 16 min 16 sec) 
Heartbeat CPU 0 instructions: 489000002 cycles: 448472256 heartbeat IPC: 0.749488 cumulative IPC: 0.808136 (Simulation time: 0 hr 16 min 18 sec) 
*** Reached end of trace for Core: 0 Repeating trace: ../ChampSim_CRC2/trace/bzip2_10M.trace.gz
Heartbeat CPU 0 instructions: 490000001 cycles: 450044061 heartbeat IPC: 0.636211 cumulative IPC: 0.807384 (Simulation time: 0 hr 16 min 20 sec) 
Heartbeat CPU 0 instructions: 491000002 cycles: 451439073 heartbeat IPC: 0.71684 cumulative IPC: 0.807033 (Simulation time: 0 hr 16 min 22 sec) 
Heartbeat CPU 0 instructions: 492000000 cycles: 452920263 heartbeat IPC: 0.675131 cumulative IPC: 0.806494 (Simulation time: 0 hr 16 min 24 sec) 
Heartbeat CPU 0 instructions: 493000002 cycles: 454406739 heartbeat IPC: 0.672733 cumulative IPC: 0.805947 (Simulation time: 0 hr 16 min 26 sec) 
Heartbeat CPU 0 instructions: 494000002 cycles: 455517446 heartbeat IPC: 0.900327 cumulative IPC: 0.806234 (Simulation time: 0 hr 16 min 28 sec) 
Heartbeat CPU 0 instructions: 495000000 cycles: 456415418 heartbeat IPC: 1.11362 cumulative IPC: 0.806989 (Simulation time: 0 hr 16 min 30 sec) 
Heartbeat CPU 0 instructions: 496000000 cycles: 457333451 heartbeat IPC: 1.08929 cumulative IPC: 0.807697 (Simulation time: 0 hr 16 min 32 sec) 
Heartbeat CPU 0 instructions: 497000000 cycles: 458139324 heartbeat IPC: 1.24089 cumulative IPC: 0.808647 (Simulation time: 0 hr 16 min 34 sec) 
Heartbeat CPU 0 instructions: 498000000 cycles: 459521329 heartbeat IPC: 0.723586 cumulative IPC: 0.808328 (Simulation time: 0 hr 16 min 36 sec) 
Heartbeat CPU 0 instructions: 499000002 cycles: 460855818 heartbeat IPC: 0.749352 cumulative IPC: 0.808116 (Simulation time: 0 hr 16 min 38 sec) 
*** Reached end of trace for Core: 0 Repeating trace: ../ChampSim_CRC2/trace/bzip2_10M.trace.gz
Heartbeat CPU 0 instructions: 500000000 cycles: 462429159 heartbeat IPC: 0.635589 cumulative IPC: 0.807385 (Simulation time: 0 hr 16 min 40 sec) 
Heartbeat CPU 0 instructions: 501000002 cycles: 463825597 heartbeat IPC: 0.716109 cumulative IPC: 0.807043 (Simulation time: 0 hr 16 min 42 sec) 
Heartbeat CPU 0 instructions: 502000001 cycles: 465307593 heartbeat IPC: 0.674765 cumulative IPC: 0.80652 (Simulation time: 0 hr 16 min 44 sec) 
Heartbeat CPU 0 instructions: 503000002 cycles: 466794036 heartbeat IPC: 0.672748 cumulative IPC: 0.805991 (Simulation time: 0 hr 16 min 46 sec) 
Heartbeat CPU 0 instructions: 504000000 cycles: 467906037 heartbeat IPC: 0.899278 cumulative IPC: 0.806266 (Simulation time: 0 hr 16 min 47 sec) 
Heartbeat CPU 0 instructions: 505000002 cycles: 468806543 heartbeat IPC: 1.11049 cumulative IPC: 0.806991 (Simulation time: 0 hr 16 min 50 sec) 
Heartbeat CPU 0 instructions: 506000002 cycles: 469723686 heartbeat IPC: 1.09034 cumulative IPC: 0.807677 (Simulation time: 0 hr 16 min 52 sec) 
Heartbeat CPU 0 instructions: 507000000 cycles: 470528612 heartbeat IPC: 1.24235 cumulative IPC: 0.808598 (Simulation time: 0 hr 16 min 54 sec) 
Heartbeat CPU 0 instructions: 508000000 cycles: 471909917 heartbeat IPC: 0.723953 cumulative IPC: 0.808291 (Simulation time: 0 hr 16 min 56 sec) 
Heartbeat CPU 0 instructions: 509000002 cycles: 473244163 heartbeat IPC: 0.749488 cumulative IPC: 0.808086 (Simulation time: 0 hr 16 min 58 sec) 
*** Reached end of trace for Core: 0 Repeating trace: ../ChampSim_CRC2/trace/bzip2_10M.trace.gz
Heartbeat CPU 0 instructions: 510000001 cycles: 474815968 heartbeat IPC: 0.636211 cumulative IPC: 0.807383 (Simulation time: 0 hr 17 min 0 sec) 
Heartbeat CPU 0 instructions: 511000002 cycles: 476211165 heartbeat IPC: 0.716745 cumulative IPC: 0.807054 (Simulation time: 0 hr 17 min 1 sec) 
Heartbeat CPU 0 instructions: 512000000 cycles: 477692533 heartbeat IPC: 0.67505 cumulative IPC: 0.806549 (Simulation time: 0 hr 17 min 3 sec) 
Heartbeat CPU 0 instructions: 513000002 cycles: 479179109 heartbeat IPC: 0.672688 cumulative IPC: 0.806036 (Simulation time: 0 hr 17 min 5 sec) 
Heartbeat CPU 0 instructions: 514000002 cycles: 480289866 heartbeat IPC: 0.900287 cumulative IPC: 0.806305 (Simulation time: 0 hr 17 min 7 sec) 
Heartbeat CPU 0 instructions: 515000000 cycles: 481189637 heartbeat IPC: 1.11139 cumulative IPC: 0.807009 (Simulation time: 0 hr 17 min 9 sec) 
Heartbeat CPU 0 instructions: 516000000 cycles: 482107670 heartbeat IPC: 1.08929 cumulative IPC: 0.807671 (Simulation time: 0 hr 17 min 11 sec) 
Heartbeat CPU 0 instructions: 517000000 cycles: 482913543 heartbeat IPC: 1.24089 cumulative IPC: 0.808561 (Simulation time: 0 hr 17 min 13 sec) 
Heartbeat CPU 0 instructions: 518000000 cycles: 484295569 heartbeat IPC: 0.723575 cumulative IPC: 0.808263 (Simulation time: 0 hr 17 min 15 sec) 
Heartbeat CPU 0 instructions: 519000002 cycles: 485630058 heartbeat IPC: 0.749352 cumulative IPC: 0.808064 (Simulation time: 0 hr 17 min 17 sec) 
*** Reached end of trace for Core: 0 Repeating trace: ../ChampSim_CRC2/trace/bzip2_10M.trace.gz
[...]
Heartbeat CPU 0 instructions: 1078000000 cycles: 1177893219 heartbeat IPC: 0.723693 cumulative IPC: 0.807702 (Simulation time: 0 hr 35 min 44 sec) 
Heartbeat CPU 0 instructions: 1079000002 cycles: 1179227708 heartbeat IPC: 0.749352 cumulative IPC: 0.807631 (Simulation time: 0 hr 35 min 46 sec) 
*** Reached end of trace for Core: 0 Repeating trace: ../ChampSim_CRC2/trace/bzip2_10M.trace.gz
Heartbeat CPU 0 instructions: 1080000000 cycles: 1180801049 heartbeat IPC: 0.635589 cumulative IPC: 0.807383 (Simulation time: 0 hr 35 min 48 sec) 
Heartbeat CPU 0 instructions: 1081000002 cycles: 1182197487 heartbeat IPC: 0.716109 cumulative IPC: 0.807266 (Simulation time: 0 hr 35 min 50 sec) 
Heartbeat CPU 0 instructions: 1082000001 cycles: 1183679483 heartbeat IPC: 0.674765 cumulative IPC: 0.807086 (Simulation time: 0 hr 35 min 52 sec) 
Heartbeat CPU 0 instructions: 1083000002 cycles: 1185165949 heartbeat IPC: 0.672737 cumulative IPC: 0.806904 (Simulation time: 0 hr 35 min 54 sec) 
Heartbeat CPU 0 instructions: 1084000000 cycles: 1186277624 heartbeat IPC: 0.899542 cumulative IPC: 0.806998 (Simulation time: 0 hr 35 min 56 sec) 
Heartbeat CPU 0 instructions: 1085000002 cycles: 1187176325 heartbeat IPC: 1.11272 cumulative IPC: 0.807248 (Simulation time: 0 hr 35 min 58 sec) 
Heartbeat CPU 0 instructions: 1086000002 cycles: 1188093468 heartbeat IPC: 1.09034 cumulative IPC: 0.807485 (Simulation time: 0 hr 36 min 0 sec) 
Heartbeat CPU 0 instructions: 1087000000 cycles: 1188898807 heartbeat IPC: 1.24171 cumulative IPC: 0.807803 (Simulation time: 0 hr 36 min 2 sec) 
Heartbeat CPU 0 instructions: 1088000000 cycles: 1190280155 heartbeat IPC: 0.723931 cumulative IPC: 0.807698 (Simulation time: 0 hr 36 min 4 sec) 
Heartbeat CPU 0 instructions: 1089000002 cycles: 1191614401 heartbeat IPC: 0.749488 cumulative IPC: 0.807627 (Simulation time: 0 hr 36 min 6 sec) 
*** Reached end of trace for Core: 0 Repeating trace: ../ChampSim_CRC2/trace/bzip2_10M.trace.gz
Heartbeat CPU 0 instructions: 1090000001 cycles: 1193186206 heartbeat IPC: 0.636211 cumulative IPC: 0.807383 (Simulation time: 0 hr 36 min 8 sec) 
Heartbeat CPU 0 instructions: 1091000002 cycles: 1194581218 heartbeat IPC: 0.71684 cumulative IPC: 0.807269 (Simulation time: 0 hr 36 min 10 sec) 
Heartbeat CPU 0 instructions: 1092000000 cycles: 1196062408 heartbeat IPC: 0.675131 cumulative IPC: 0.807091 (Simulation time: 0 hr 36 min 12 sec) 
Heartbeat CPU 0 instructions: 1093000002 cycles: 1197548882 heartbeat IPC: 0.672734 cumulative IPC: 0.806911 (Simulation time: 0 hr 36 min 14 sec) 
Heartbeat CPU 0 instructions: 1094000002 cycles: 1198660049 heartbeat IPC: 0.899955 cumulative IPC: 0.807004 (Simulation time: 0 hr 36 min 16 sec) 
Heartbeat CPU 0 instructions: 1095000000 cycles: 1199557134 heartbeat IPC: 1.11472 cumulative IPC: 0.807253 (Simulation time: 0 hr 36 min 18 sec) 
Heartbeat CPU 0 instructions: 1096000000 cycles: 1200475167 heartbeat IPC: 1.08929 cumulative IPC: 0.807487 (Simulation time: 0 hr 36 min 20 sec) 
Heartbeat CPU 0 instructions: 1097000000 cycles: 1201281396 heartbeat IPC: 1.24034 cumulative IPC: 0.807801 (Simulation time: 0 hr 36 min 22 sec) 
Heartbeat CPU 0 instructions: 1098000000 cycles: 1202663181 heartbeat IPC: 0.723702 cumulative IPC: 0.807696 (Simulation time: 0 hr 36 min 24 sec) 
Heartbeat CPU 0 instructions: 1099000002 cycles: 1203997670 heartbeat IPC: 0.749352 cumulative IPC: 0.807626 (Simulation time: 0 hr 36 min 26 sec) 
*** Reached end of trace for Core: 0 Repeating trace: ../ChampSim_CRC2/trace/bzip2_10M.trace.gz
Heartbeat CPU 0 instructions: 1100000000 cycles: 1205571011 heartbeat IPC: 0.635589 cumulative IPC: 0.807384 (Simulation time: 0 hr 36 min 28 sec) 
Heartbeat CPU 0 instructions: 1101000002 cycles: 1206967449 heartbeat IPC: 0.716109 cumulative IPC: 0.807269 (Simulation time: 0 hr 36 min 30 sec) 
Heartbeat CPU 0 instructions: 1102000001 cycles: 1208449445 heartbeat IPC: 0.674765 cumulative IPC: 0.807094 (Simulation time: 0 hr 36 min 32 sec) 
Heartbeat CPU 0 instructions: 1103000002 cycles: 1209936038 heartbeat IPC: 0.67268 cumulative IPC: 0.806915 (Simulation time: 0 hr 36 min 34 sec) 
Heartbeat CPU 0 instructions: 1104000000 cycles: 1211047225 heartbeat IPC: 0.899937 cumulative IPC: 0.807007 (Simulation time: 0 hr 36 min 36 sec) 
Heartbeat CPU 0 instructions: 1105000002 cycles: 1211946996 heartbeat IPC: 1.1114 cumulative IPC: 0.807252 (Simulation time: 0 hr 36 min 38 sec) 
Heartbeat CPU 0 instructions: 1106000002 cycles: 1212864249 heartbeat IPC: 1.09021 cumulative IPC: 0.807483 (Simulation time: 0 hr 36 min 40 sec) 
Heartbeat CPU 0 instructions: 1107000000 cycles: 1213669449 heartbeat IPC: 1.24193 cumulative IPC: 0.807795 (Simulation time: 0 hr 36 min 42 sec) 
Heartbeat CPU 0 instructions: 1108000000 cycles: 1215050704 heartbeat IPC: 0.723979 cumulative IPC: 0.807692 (Simulation time: 0 hr 36 min 44 sec) 
Heartbeat CPU 0 instructions: 1109000002 cycles: 1216384950 heartbeat IPC: 0.749488 cumulative IPC: 0.807623 (Simulation time: 0 hr 36 min 46 sec) 
*** Reached end of trace for Core: 0 Repeating trace: ../ChampSim_CRC2/trace/bzip2_10M.trace.gz
Heartbeat CPU 0 instructions: 1110000001 cycles: 1217956755 heartbeat IPC: 0.636211 cumulative IPC: 0.807384 (Simulation time: 0 hr 36 min 48 sec) 
Heartbeat CPU 0 instructions: 1111000002 cycles: 1219351952 heartbeat IPC: 0.716745 cumulative IPC: 0.807271 (Simulation time: 0 hr 36 min 50 sec) 
Heartbeat CPU 0 instructions: 1112000000 cycles: 1220833320 heartbeat IPC: 0.67505 cumulative IPC: 0.807098 (Simulation time: 0 hr 36 min 52 sec) 
Heartbeat CPU 0 instructions: 1113000002 cycles: 1222319848 heartbeat IPC: 0.67271 cumulative IPC: 0.806922 (Simulation time: 0 hr 36 min 54 sec) 
Heartbeat CPU 0 instructions: 1114000002 cycles: 1223430426 heartbeat IPC: 0.900432 cumulative IPC: 0.807013 (Simulation time: 0 hr 36 min 56 sec) 
Heartbeat CPU 0 instructions: 1115000000 cycles: 1224329887 heartbeat IPC: 1.11177 cumulative IPC: 0.807255 (Simulation time: 0 hr 36 min 58 sec) 
Heartbeat CPU 0 instructions: 1116000000 cycles: 1225247920 heartbeat IPC: 1.08929 cumulative IPC: 0.807483 (Simulation time: 0 hr 37 min 0 sec) 
Heartbeat CPU 0 instructions: 1117000000 cycles: 1226054131 heartbeat IPC: 1.24037 cumulative IPC: 0.807791 (Simulation time: 0 hr 37 min 2 sec) 
Heartbeat CPU 0 instructions: 1118000000 cycles: 1227435831 heartbeat IPC: 0.723746 cumulative IPC: 0.807689 (Simulation time: 0 hr 37 min 4 sec) 
Heartbeat CPU 0 instructions: 1119000002 cycles: 1228770320 heartbeat IPC: 0.749352 cumulative IPC: 0.80762 (Simulation time: 0 hr 37 min 6 sec) 
*** Reached end of trace for Core: 0 Repeating trace: ../ChampSim_CRC2/trace/bzip2_10M.trace.gz
Heartbeat CPU 0 instructions: 1120000000 cycles: 1230343661 heartbeat IPC: 0.635589 cumulative IPC: 0.807383 (Simulation time: 0 hr 37 min 8 sec) 
Heartbeat CPU 0 instructions: 1121000002 cycles: 1231739914 heartbeat IPC: 0.716204 cumulative IPC: 0.807271 (Simulation time: 0 hr 37 min 10 sec) 
Heartbeat CPU 0 instructions: 1122000001 cycles: 1233221732 heartbeat IPC: 0.674846 cumulative IPC: 0.807099 (Simulation time: 0 hr 37 min 12 sec) 
Heartbeat CPU 0 instructions: 1123000002 cycles: 1234707928 heartbeat IPC: 0.672859 cumulative IPC: 0.806925 (Simulation time: 0 hr 37 min 14 sec) 
Heartbeat CPU 0 instructions: 1124000000 cycles: 1235818927 heartbeat IPC: 0.900089 cumulative IPC: 0.807015 (Simulation time: 0 hr 37 min 16 sec) 
Heartbeat CPU 0 instructions: 1125000002 cycles: 1236718168 heartbeat IPC: 1.11205 cumulative IPC: 0.807255 (Simulation time: 0 hr 37 min 18 sec) 
Heartbeat CPU 0 instructions: 1126000002 cycles: 1237635311 heartbeat IPC: 1.09034 cumulative IPC: 0.807481 (Simulation time: 0 hr 37 min 20 sec) 
Heartbeat CPU 0 instructions: 1127000000 cycles: 1238440445 heartbeat IPC: 1.24203 cumulative IPC: 0.807786 (Simulation time: 0 hr 37 min 22 sec) 
Heartbeat CPU 0 instructions: 1128000000 cycles: 1239821809 heartbeat IPC: 0.723922 cumulative IPC: 0.807685 (Simulation time: 0 hr 37 min 24 sec) 
Heartbeat CPU 0 instructions: 1129000002 cycles: 1241156055 heartbeat IPC: 0.749488 cumulative IPC: 0.807618 (Simulation time: 0 hr 37 min 26 sec) 
*** Reached end of trace for Core: 0 Repeating trace: ../ChampSim_CRC2/trace/bzip2_10M.trace.gz
Heartbeat CPU 0 instructions: 1130000001 cycles: 1242727860 heartbeat IPC: 0.636211 cumulative IPC: 0.807384 (Simulation time: 0 hr 37 min 28 sec) 
Heartbeat CPU 0 instructions: 1131000002 cycles: 1244123057 heartbeat IPC: 0.716745 cumulative IPC: 0.807274 (Simulation time: 0 hr 37 min 30 sec) 
Heartbeat CPU 0 instructions: 1132000000 cycles: 1245604425 heartbeat IPC: 0.67505 cumulative IPC: 0.807104 (Simulation time: 0 hr 37 min 32 sec) 
Heartbeat CPU 0 instructions: 1133000002 cycles: 1247091073 heartbeat IPC: 0.672656 cumulative IPC: 0.806932 (Simulation time: 0 hr 37 min 34 sec) 
Heartbeat CPU 0 instructions: 1134000002 cycles: 1248202052 heartbeat IPC: 0.900107 cumulative IPC: 0.807021 (Simulation time: 0 hr 37 min 35 sec) 
Heartbeat CPU 0 instructions: 1135000000 cycles: 1249100940 heartbeat IPC: 1.11248 cumulative IPC: 0.807258 (Simulation time: 0 hr 37 min 38 sec) 
Heartbeat CPU 0 instructions: 1136000000 cycles: 1250019083 heartbeat IPC: 1.08915 cumulative IPC: 0.807481 (Simulation time: 0 hr 37 min 40 sec) 
Heartbeat CPU 0 instructions: 1137000000 cycles: 1250825226 heartbeat IPC: 1.24047 cumulative IPC: 0.807782 (Simulation time: 0 hr 37 min 42 sec) 
Heartbeat CPU 0 instructions: 1138000000 cycles: 1252207046 heartbeat IPC: 0.723683 cumulative IPC: 0.807682 (Simulation time: 0 hr 37 min 44 sec) 
Heartbeat CPU 0 instructions: 1139000002 cycles: 1253541425 heartbeat IPC: 0.749414 cumulative IPC: 0.807615 (Simulation time: 0 hr 37 min 46 sec) 
*** Reached end of trace for Core: 0 Repeating trace: ../ChampSim_CRC2/trace/bzip2_10M.trace.gz
Heartbeat CPU 0 instructions: 1140000000 cycles: 1255114766 heartbeat IPC: 0.635589 cumulative IPC: 0.807383 (Simulation time: 0 hr 37 min 47 sec) 
Heartbeat CPU 0 instructions: 1141000002 cycles: 1256511204 heartbeat IPC: 0.716109 cumulative IPC: 0.807274 (Simulation time: 0 hr 37 min 49 sec) 
Heartbeat CPU 0 instructions: 1142000001 cycles: 1257993200 heartbeat IPC: 0.674765 cumulative IPC: 0.807105 (Simulation time: 0 hr 37 min 51 sec) 
Heartbeat CPU 0 instructions: 1143000002 cycles: 1259479319 heartbeat IPC: 0.672894 cumulative IPC: 0.806935 (Simulation time: 0 hr 37 min 53 sec) 
Heartbeat CPU 0 instructions: 1144000000 cycles: 1260591155 heartbeat IPC: 0.899411 cumulative IPC: 0.807023 (Simulation time: 0 hr 37 min 55 sec) 
Heartbeat CPU 0 instructions: 1145000002 cycles: 1261490655 heartbeat IPC: 1.11173 cumulative IPC: 0.807257 (Simulation time: 0 hr 37 min 58 sec) 
Heartbeat CPU 0 instructions: 1146000002 cycles: 1262407798 heartbeat IPC: 1.09034 cumulative IPC: 0.807478 (Simulation time: 0 hr 38 min 0 sec) 
Heartbeat CPU 0 instructions: 1147000000 cycles: 1263212533 heartbeat IPC: 1.24264 cumulative IPC: 0.807777 (Simulation time: 0 hr 38 min 2 sec) 
Heartbeat CPU 0 instructions: 1148000000 cycles: 1264593732 heartbeat IPC: 0.724009 cumulative IPC: 0.807678 (Simulation time: 0 hr 38 min 3 sec) 
Heartbeat CPU 0 instructions: 1149000002 cycles: 1265927868 heartbeat IPC: 0.74955 cumulative IPC: 0.807612 (Simulation time: 0 hr 38 min 5 sec) 
*** Reached end of trace for Core: 0 Repeating trace: ../ChampSim_CRC2/trace/bzip2_10M.trace.gz
Heartbeat CPU 0 instructions: 1150000001 cycles: 1267499673 heartbeat IPC: 0.636211 cumulative IPC: 0.807383 (Simulation time: 0 hr 38 min 7 sec) 
Heartbeat CPU 0 instructions: 1151000002 cycles: 1268894685 heartbeat IPC: 0.71684 cumulative IPC: 0.807276 (Simulation time: 0 hr 38 min 9 sec) 
Heartbeat CPU 0 instructions: 1152000000 cycles: 1270375875 heartbeat IPC: 0.675131 cumulative IPC: 0.80711 (Simulation time: 0 hr 38 min 11 sec) 
Heartbeat CPU 0 instructions: 1153000002 cycles: 1271862434 heartbeat IPC: 0.672696 cumulative IPC: 0.806941 (Simulation time: 0 hr 38 min 13 sec) 
Heartbeat CPU 0 instructions: 1154000002 cycles: 1272972962 heartbeat IPC: 0.900473 cumulative IPC: 0.807029 (Simulation time: 0 hr 38 min 15 sec) 
Heartbeat CPU 0 instructions: 1155000000 cycles: 1273870674 heartbeat IPC: 1.11394 cumulative IPC: 0.807262 (Simulation time: 0 hr 38 min 17 sec) 
Heartbeat CPU 0 instructions: 1156000000 cycles: 1274788817 heartbeat IPC: 1.08915 cumulative IPC: 0.80748 (Simulation time: 0 hr 38 min 19 sec) 
Heartbeat CPU 0 instructions: 1157000000 cycles: 1275594780 heartbeat IPC: 1.24075 cumulative IPC: 0.807775 (Simulation time: 0 hr 38 min 21 sec) 
Heartbeat CPU 0 instructions: 1158000000 cycles: 1276976675 heartbeat IPC: 0.723644 cumulative IPC: 0.807677 (Simulation time: 0 hr 38 min 23 sec) 
Heartbeat CPU 0 instructions: 1159000002 cycles: 1278311164 heartbeat IPC: 0.749352 cumulative IPC: 0.807612 (Simulation time: 0 hr 38 min 25 sec) 
*** Reached end of trace for Core: 0 Repeating trace: ../ChampSim_CRC2/trace/bzip2_10M.trace.gz
Heartbeat CPU 0 instructions: 1160000000 cycles: 1279884505 heartbeat IPC: 0.635589 cumulative IPC: 0.807384 (Simulation time: 0 hr 38 min 27 sec) 
Heartbeat CPU 0 instructions: 1161000002 cycles: 1281280943 heartbeat IPC: 0.716109 cumulative IPC: 0.807277 (Simulation time: 0 hr 38 min 29 sec) 
Heartbeat CPU 0 instructions: 1162000001 cycles: 1282762939 heartbeat IPC: 0.674765 cumulative IPC: 0.807112 (Simulation time: 0 hr 38 min 31 sec) 
Heartbeat CPU 0 instructions: 1163000002 cycles: 1284249581 heartbeat IPC: 0.672658 cumulative IPC: 0.806945 (Simulation time: 0 hr 38 min 33 sec) 
Heartbeat CPU 0 instructions: 1164000000 cycles: 1285360487 heartbeat IPC: 0.900164 cumulative IPC: 0.807031 (Simulation time: 0 hr 38 min 35 sec) 
Heartbeat CPU 0 instructions: 1165000002 cycles: 1286261068 heartbeat IPC: 1.1104 cumulative IPC: 0.80726 (Simulation time: 0 hr 38 min 37 sec) 
Heartbeat CPU 0 instructions: 1166000002 cycles: 1287178321 heartbeat IPC: 1.09021 cumulative IPC: 0.807477 (Simulation time: 0 hr 38 min 39 sec) 
Heartbeat CPU 0 instructions: 1167000000 cycles: 1287983523 heartbeat IPC: 1.24192 cumulative IPC: 0.807769 (Simulation time: 0 hr 38 min 41 sec) 
Heartbeat CPU 0 instructions: 1168000000 cycles: 1289364778 heartbeat IPC: 0.723979 cumulative IPC: 0.807673 (Simulation time: 0 hr 38 min 43 sec) 
Heartbeat CPU 0 instructions: 1169000002 cycles: 1290699024 heartbeat IPC: 0.749488 cumulative IPC: 0.807608 (Simulation time: 0 hr 38 min 45 sec) 
*** Reached end of trace for Core: 0 Repeating trace: ../ChampSim_CRC2/trace/bzip2_10M.trace.gz
Heartbeat CPU 0 instructions: 1170000001 cycles: 1292270829 heartbeat IPC: 0.636211 cumulative IPC: 0.807384 (Simulation time: 0 hr 38 min 47 sec) 
Heartbeat CPU 0 instructions: 1171000002 cycles: 1293666026 heartbeat IPC: 0.716745 cumulative IPC: 0.807278 (Simulation time: 0 hr 38 min 49 sec) 
Heartbeat CPU 0 instructions: 1172000000 cycles: 1295147394 heartbeat IPC: 0.67505 cumulative IPC: 0.807116 (Simulation time: 0 hr 38 min 51 sec) 
Heartbeat CPU 0 instructions: 1173000002 cycles: 1296633871 heartbeat IPC: 0.672733 cumulative IPC: 0.80695 (Simulation time: 0 hr 38 min 53 sec) 
Heartbeat CPU 0 instructions: 1174000002 cycles: 1297744614 heartbeat IPC: 0.900298 cumulative IPC: 0.807036 (Simulation time: 0 hr 38 min 55 sec) 
Heartbeat CPU 0 instructions: 1175000000 cycles: 1298644802 heartbeat IPC: 1.11088 cumulative IPC: 0.807262 (Simulation time: 0 hr 38 min 57 sec) 
Heartbeat CPU 0 instructions: 1176000000 cycles: 1299563185 heartbeat IPC: 1.08887 cumulative IPC: 0.807476 (Simulation time: 0 hr 38 min 59 sec) 
Heartbeat CPU 0 instructions: 1177000000 cycles: 1300369150 heartbeat IPC: 1.24075 cumulative IPC: 0.807765 (Simulation time: 0 hr 39 min 1 sec) 
Heartbeat CPU 0 instructions: 1178000000 cycles: 1301751340 heartbeat IPC: 0.72349 cumulative IPC: 0.807669 (Simulation time: 0 hr 39 min 3 sec) 
Heartbeat CPU 0 instructions: 1179000002 cycles: 1303085751 heartbeat IPC: 0.749396 cumulative IPC: 0.807605 (Simulation time: 0 hr 39 min 5 sec) 
*** Reached end of trace for Core: 0 Repeating trace: ../ChampSim_CRC2/trace/bzip2_10M.trace.gz
Heartbeat CPU 0 instructions: 1180000000 cycles: 1304659092 heartbeat IPC: 0.635589 cumulative IPC: 0.807382 (Simulation time: 0 hr 39 min 7 sec) 
Heartbeat CPU 0 instructions: 1181000002 cycles: 1306055345 heartbeat IPC: 0.716204 cumulative IPC: 0.807277 (Simulation time: 0 hr 39 min 9 sec) 
Heartbeat CPU 0 instructions: 1182000001 cycles: 1307537163 heartbeat IPC: 0.674846 cumulative IPC: 0.807116 (Simulation time: 0 hr 39 min 11 sec) 
Heartbeat CPU 0 instructions: 1183000002 cycles: 1309022904 heartbeat IPC: 0.673065 cumulative IPC: 0.806952 (Simulation time: 0 hr 39 min 13 sec) 
Heartbeat CPU 0 instructions: 1184000000 cycles: 1310133768 heartbeat IPC: 0.900198 cumulative IPC: 0.807037 (Simulation time: 0 hr 39 min 15 sec) 
Heartbeat CPU 0 instructions: 1185000002 cycles: 1311033156 heartbeat IPC: 1.11187 cumulative IPC: 0.807262 (Simulation time: 0 hr 39 min 17 sec) 
Heartbeat CPU 0 instructions: 1186000002 cycles: 1311950299 heartbeat IPC: 1.09034 cumulative IPC: 0.807475 (Simulation time: 0 hr 39 min 19 sec) 
Heartbeat CPU 0 instructions: 1187000000 cycles: 1312755406 heartbeat IPC: 1.24207 cumulative IPC: 0.807761 (Simulation time: 0 hr 39 min 21 sec) 
Heartbeat CPU 0 instructions: 1188000000 cycles: 1314136846 heartbeat IPC: 0.723882 cumulative IPC: 0.807666 (Simulation time: 0 hr 39 min 23 sec) 
Heartbeat CPU 0 instructions: 1189000002 cycles: 1315471282 heartbeat IPC: 0.749382 cumulative IPC: 0.807603 (Simulation time: 0 hr 39 min 25 sec) 
*** Reached end of trace for Core: 0 Repeating trace: ../ChampSim_CRC2/trace/bzip2_10M.trace.gz
Heartbeat CPU 0 instructions: 1190000001 cycles: 1317043087 heartbeat IPC: 0.636211 cumulative IPC: 0.807383 (Simulation time: 0 hr 39 min 27 sec) 
Heartbeat CPU 0 instructions: 1191000002 cycles: 1318438284 heartbeat IPC: 0.716745 cumulative IPC: 0.80728 (Simulation time: 0 hr 39 min 29 sec) 
Heartbeat CPU 0 instructions: 1192000000 cycles: 1319919652 heartbeat IPC: 0.67505 cumulative IPC: 0.807121 (Simulation time: 0 hr 39 min 31 sec) 
Heartbeat CPU 0 instructions: 1193000002 cycles: 1321405897 heartbeat IPC: 0.672838 cumulative IPC: 0.806958 (Simulation time: 0 hr 39 min 33 sec) 
Heartbeat CPU 0 instructions: 1194000002 cycles: 1322516868 heartbeat IPC: 0.900114 cumulative IPC: 0.807042 (Simulation time: 0 hr 39 min 35 sec) 
Heartbeat CPU 0 instructions: 1195000000 cycles: 1323415567 heartbeat IPC: 1.11272 cumulative IPC: 0.807265 (Simulation time: 0 hr 39 min 37 sec) 
Heartbeat CPU 0 instructions: 1196000000 cycles: 1324333710 heartbeat IPC: 1.08915 cumulative IPC: 0.807475 (Simulation time: 0 hr 39 min 39 sec) 
Heartbeat CPU 0 instructions: 1197000000 cycles: 1325139596 heartbeat IPC: 1.24087 cumulative IPC: 0.807758 (Simulation time: 0 hr 39 min 41 sec) 
Heartbeat CPU 0 instructions: 1198000000 cycles: 1326521657 heartbeat IPC: 0.723557 cumulative IPC: 0.807664 (Simulation time: 0 hr 39 min 43 sec) 
Heartbeat CPU 0 instructions: 1199000002 cycles: 1327856146 heartbeat IPC: 0.749352 cumulative IPC: 0.807601 (Simulation time: 0 hr 39 min 45 sec) 
*** Reached end of trace for Core: 0 Repeating trace: ../ChampSim_CRC2/trace/bzip2_10M.trace.gz
Heartbeat CPU 0 instructions: 1200000000 cycles: 1329429487 heartbeat IPC: 0.635589 cumulative IPC: 0.807383 (Simulation time: 0 hr 39 min 47 sec) 
Finished CPU 0 instructions: 1000000000 cycles: 1238570274 cummulative IPC: 0.807383 (Simulation time: 0 hr 39 min 47 sec) 

ChampSim completed all CPUs

Region of Interest Statistics

CPU 0 cummulative IPC: 0.807383 instructions: 1000000000 cycles: 1238570274
LLC TOTAL     ACCESS:   10448351  HIT:   10290437  MISS:     157914
LLC LOAD      ACCESS:    6580099  HIT:    6520647  MISS:      59452
LLC RFO       ACCESS:    1674826  HIT:    1576914  MISS:      97912
LLC PREFETCH  ACCESS:          0  HIT:          0  MISS:          0
LLC WRITEBACK ACCESS:    2193426  HIT:    2192876  MISS:        550
