
*** ChampSim Multicore Out-of-Order Simulator ***

Warmup Instructions: 200000000
Simulation Instructions: 1000000000
Configuration: 1
Number of CPUs: 1
LLC sets: 2048
LLC ways: 16
Off-chip DRAM Channels: 1 Width: 64-bit Data Rate: 1600 MT/s

CPU 0 runs ../ChampSim_CRC2/trace/bzip2_10M.trace.gz
Initialize SRRIP state
Heartbeat CPU 0 instructions: 1000002 cycles: 454321 heartbeat IPC: 2.20109 cumulative IPC: 2.20109 (Simulation time: 0 hr 0 min 2 sec) 
Heartbeat CPU 0 instructions: 2000001 cycles: 907396 heartbeat IPC: 2.20714 cumulative IPC: 2.20411 (Simulation time: 0 hr 0 min 4 sec) 
Heartbeat CPU 0 instructions: 3000003 cycles: 1353173 heartbeat IPC: 2.24328 cumulative IPC: 2.21701 (Simulation time: 0 hr 0 min 6 sec) 
Heartbeat CPU 0 instructions: 4000000 cycles: 1808033 heartbeat IPC: 2.19847 cumulative IPC: 2.21235 (Simulation time: 0 hr 0 min 8 sec) 
Heartbeat CPU 0 instructions: 5000000 cycles: 2187398 heartbeat IPC: 2.63598 cumulative IPC: 2.28582 (Simulation time: 0 hr 0 min 10 sec) 
Heartbeat CPU 0 instructions: 6000002 cycles: 2642705 heartbeat IPC: 2.19632 cumulative IPC: 2.2704 (Simulation time: 0 hr 0 min 12 sec) 
Heartbeat CPU 0 instructions: 7000000 cycles: 3183139 heartbeat IPC: 1.85036 cumulative IPC: 2.19909 (Simulation time: 0 hr 0 min 14 sec) 
Heartbeat CPU 0 instructions: 8000000 cycles: 3626086 heartbeat IPC: 2.25761 cumulative IPC: 2.20624 (Simulation time: 0 hr 0 min 16 sec) 
Heartbeat CPU 0 instructions: 9000000 cycles: 4101155 heartbeat IPC: 2.10496 cumulative IPC: 2.1945 (Simulation time: 0 hr 0 min 18 sec) 
*** Reached end of trace for Core: 0 Repeating trace: ../ChampSim_CRC2/trace/bzip2_10M.trace.gz
Heartbeat CPU 0 instructions: 10000000 cycles: 4541473 heartbeat IPC: 2.27109 cumulative IPC: 2.20193 (Simulation time: 0 hr 0 min 20 sec) 
Heartbeat CPU 0 instructions: 11000002 cycles: 4995122 heartbeat IPC: 2.20435 cumulative IPC: 2.20215 (Simulation time: 0 hr 0 min 22 sec) 
Heartbeat CPU 0 instructions: 12000000 cycles: 5448249 heartbeat IPC: 2.20688 cumulative IPC: 2.20254 (Simulation time: 0 hr 0 min 25 sec) 
Heartbeat CPU 0 instructions: 13000002 cycles: 5893918 heartbeat IPC: 2.24382 cumulative IPC: 2.20566 (Simulation time: 0 hr 0 min 27 sec) 
Heartbeat CPU 0 instructions: 14000001 cycles: 6348407 heartbeat IPC: 2.20027 cumulative IPC: 2.20528 (Simulation time: 0 hr 0 min 29 sec) 
Heartbeat CPU 0 instructions: 15000003 cycles: 6727414 heartbeat IPC: 2.63848 cumulative IPC: 2.22968 (Simulation time: 0 hr 0 min 30 sec) 
Heartbeat CPU 0 instructions: 16000000 cycles: 7182459 heartbeat IPC: 2.19758 cumulative IPC: 2.22765 (Simulation time: 0 hr 0 min 32 sec) 
Heartbeat CPU 0 instructions: 17000000 cycles: 7723748 heartbeat IPC: 1.84744 cumulative IPC: 2.201 (Simulation time: 0 hr 0 min 35 sec) 
Heartbeat CPU 0 instructions: 18000000 cycles: 8170430 heartbeat IPC: 2.23873 cumulative IPC: 2.20307 (Simulation time: 0 hr 0 min 37 sec) 
Heartbeat CPU 0 instructions: 19000000 cycles: 8644886 heartbeat IPC: 2.10768 cumulative IPC: 2.19783 (Simulation time: 0 hr 0 min 39 sec) 
*** Reached end of trace for Core: 0 Repeating trace: ../ChampSim_CRC2/trace/bzip2_10M.trace.gz
Heartbeat CPU 0 instructions: 20000000 cycles: 9085224 heartbeat IPC: 2.27098 cumulative IPC: 2.20138 (Simulation time: 0 hr 0 min 41 sec) 
Heartbeat CPU 0 instructions: 21000002 cycles: 9539745 heartbeat IPC: 2.20012 cumulative IPC: 2.20132 (Simulation time: 0 hr 0 min 43 sec) 
Heartbeat CPU 0 instructions: 22000001 cycles: 9993007 heartbeat IPC: 2.20623 cumulative IPC: 2.20154 (Simulation time: 0 hr 0 min 45 sec) 
Heartbeat CPU 0 instructions: 23000003 cycles: 10438918 heartbeat IPC: 2.2426 cumulative IPC: 2.20329 (Simulation time: 0 hr 0 min 47 sec) 
Heartbeat CPU 0 instructions: 24000000 cycles: 10893717 heartbeat IPC: 2.19877 cumulative IPC: 2.2031 (Simulation time: 0 hr 0 min 49 sec) 
Heartbeat CPU 0 instructions: 25000000 cycles: 11273094 heartbeat IPC: 2.6359 cumulative IPC: 2.21767 (Simulation time: 0 hr 0 min 51 sec) 
Heartbeat CPU 0 instructions: 26000002 cycles: 11728441 heartbeat IPC: 2.19613 cumulative IPC: 2.21683 (Simulation time: 0 hr 0 min 53 sec) 
Heartbeat CPU 0 instructions: 27000000 cycles: 12268950 heartbeat IPC: 1.8501 cumulative IPC: 2.20068 (Simulation time: 0 hr 0 min 55 sec) 
Heartbeat CPU 0 instructions: 28000000 cycles: 12711979 heartbeat IPC: 2.25719 cumulative IPC: 2.20265 (Simulation time: 0 hr 0 min 57 sec) 
Heartbeat CPU 0 instructions: 29000000 cycles: 13187054 heartbeat IPC: 2.10493 cumulative IPC: 2.19913 (Simulation time: 0 hr 0 min 59 sec) 
*** Reached end of trace for Core: 0 Repeating trace: ../ChampSim_CRC2/trace/bzip2_10M.trace.gz
Heartbeat CPU 0 instructions: 30000000 cycles: 13627378 heartbeat IPC: 2.27105 cumulative IPC: 2.20145 (Simulation time: 0 hr 1 min 1 sec) 
Heartbeat CPU 0 instructions: 31000002 cycles: 14081033 heartbeat IPC: 2.20432 cumulative IPC: 2.20154 (Simulation time: 0 hr 1 min 3 sec) 
Heartbeat CPU 0 instructions: 32000000 cycles: 14534165 heartbeat IPC: 2.20686 cumulative IPC: 2.20171 (Simulation time: 0 hr 1 min 5 sec) 
Heartbeat CPU 0 instructions: 33000002 cycles: 14979853 heartbeat IPC: 2.24373 cumulative IPC: 2.20296 (Simulation time: 0 hr 1 min 7 sec) 
Heartbeat CPU 0 instructions: 34000001 cycles: 15434312 heartbeat IPC: 2.20042 cumulative IPC: 2.20288 (Simulation time: 0 hr 1 min 9 sec) 
Heartbeat CPU 0 instructions: 35000003 cycles: 15813418 heartbeat IPC: 2.63779 cumulative IPC: 2.21331 (Simulation time: 0 hr 1 min 11 sec) 
Heartbeat CPU 0 instructions: 36000000 cycles: 16268466 heartbeat IPC: 2.19756 cumulative IPC: 2.21287 (Simulation time: 0 hr 1 min 13 sec) 
Heartbeat CPU 0 instructions: 37000000 cycles: 16809751 heartbeat IPC: 1.84746 cumulative IPC: 2.2011 (Simulation time: 0 hr 1 min 15 sec) 
Heartbeat CPU 0 instructions: 38000000 cycles: 17256445 heartbeat IPC: 2.23867 cumulative IPC: 2.20208 (Simulation time: 0 hr 1 min 17 sec) 
Heartbeat CPU 0 instructions: 39000000 cycles: 17730898 heartbeat IPC: 2.10769 cumulative IPC: 2.19955 (Simulation time: 0 hr 1 min 19 sec) 
*** Reached end of trace for Core: 0 Repeating trace: ../ChampSim_CRC2/trace/bzip2_10M.trace.gz
Heartbeat CPU 0 instructions: 40000000 cycles: 18171234 heartbeat IPC: 2.27099 cumulative IPC: 2.20128 (Simulation time: 0 hr 1 min 21 sec) 
Heartbeat CPU 0 instructions: 41000002 cycles: 18625766 heartbeat IPC: 2.20007 cumulative IPC: 2.20125 (Simulation time: 0 hr 1 min 23 sec) 
Heartbeat CPU 0 instructions: 42000001 cycles: 19079030 heartbeat IPC: 2.20622 cumulative IPC: 2.20137 (Simulation time: 0 hr 1 min 25 sec) 
Heartbeat CPU 0 instructions: 43000003 cycles: 19524926 heartbeat IPC: 2.24268 cumulative IPC: 2.20231 (Simulation time: 0 hr 1 min 27 sec) 
Heartbeat CPU 0 instructions: 44000000 cycles: 19979751 heartbeat IPC: 2.19864 cumulative IPC: 2.20223 (Simulation time: 0 hr 1 min 29 sec) 
Heartbeat CPU 0 instructions: 45000000 cycles: 20359149 heartbeat IPC: 2.63575 cumulative IPC: 2.21031 (Simulation time: 0 hr 1 min 31 sec) 
Heartbeat CPU 0 instructions: 46000002 cycles: 20814497 heartbeat IPC: 2.19613 cumulative IPC: 2.21 (Simulation time: 0 hr 1 min 33 sec) 
Heartbeat CPU 0 instructions: 47000000 cycles: 21355005 heartbeat IPC: 1.85011 cumulative IPC: 2.20089 (Simulation time: 0 hr 1 min 35 sec) 
Heartbeat CPU 0 instructions: 48000000 cycles: 21798033 heartbeat IPC: 2.25719 cumulative IPC: 2.20203 (Simulation time: 0 hr 1 min 37 sec) 
Heartbeat CPU 0 instructions: 49000000 cycles: 22273107 heartbeat IPC: 2.10494 cumulative IPC: 2.19996 (Simulation time: 0 hr 1 min 39 sec) 
*** Reached end of trace for Core: 0 Repeating trace: ../ChampSim_CRC2/trace/bzip2_10M.trace.gz
Heartbeat CPU 0 instructions: 50000000 cycles: 22713431 heartbeat IPC: 2.27105 cumulative IPC: 2.20134 (Simulation time: 0 hr 1 min 41 sec) 
Heartbeat CPU 0 instructions: 51000002 cycles: 23167086 heartbeat IPC: 2.20432 cumulative IPC: 2.2014 (Simulation time: 0 hr 1 min 43 sec) 
Heartbeat CPU 0 instructions: 52000000 cycles: 23620217 heartbeat IPC: 2.20686 cumulative IPC: 2.2015 (Simulation time: 0 hr 1 min 45 sec) 
Heartbeat CPU 0 instructions: 53000002 cycles: 24065906 heartbeat IPC: 2.24372 cumulative IPC: 2.20229 (Simulation time: 0 hr 1 min 47 sec) 
Heartbeat CPU 0 instructions: 54000001 cycles: 24520368 heartbeat IPC: 2.2004 cumulative IPC: 2.20225 (Simulation time: 0 hr 1 min 49 sec) 
Heartbeat CPU 0 instructions: 55000003 cycles: 24899491 heartbeat IPC: 2.63767 cumulative IPC: 2.20888 (Simulation time: 0 hr 1 min 51 sec) 
Heartbeat CPU 0 instructions: 56000000 cycles: 25354540 heartbeat IPC: 2.19756 cumulative IPC: 2.20868 (Simulation time: 0 hr 1 min 53 sec) 
Heartbeat CPU 0 instructions: 57000000 cycles: 25895830 heartbeat IPC: 1.84744 cumulative IPC: 2.20113 (Simulation time: 0 hr 1 min 55 sec) 
Heartbeat CPU 0 instructions: 58000000 cycles: 26342525 heartbeat IPC: 2.23866 cumulative IPC: 2.20176 (Simulation time: 0 hr 1 min 57 sec) 
Heartbeat CPU 0 instructions: 59000000 cycles: 26816979 heartbeat IPC: 2.10769 cumulative IPC: 2.2001 (Simulation time: 0 hr 1 min 59 sec) 
*** Reached end of trace for Core: 0 Repeating trace: ../ChampSim_CRC2/trace/bzip2_10M.trace.gz
Heartbeat CPU 0 instructions: 60000000 cycles: 27257315 heartbeat IPC: 2.27099 cumulative IPC: 2.20124 (Simulation time: 0 hr 2 min 1 sec) 
Heartbeat CPU 0 instructions: 61000002 cycles: 27711849 heartbeat IPC: 2.20006 cumulative IPC: 2.20122 (Simulation time: 0 hr 2 min 3 sec) 
Heartbeat CPU 0 instructions: 62000001 cycles: 28165112 heartbeat IPC: 2.20622 cumulative IPC: 2.2013 (Simulation time: 0 hr 2 min 5 sec) 
Heartbeat CPU 0 instructions: 63000003 cycles: 28611013 heartbeat IPC: 2.24265 cumulative IPC: 2.20195 (Simulation time: 0 hr 2 min 7 sec) 
Heartbeat CPU 0 instructions: 64000000 cycles: 29065826 heartbeat IPC: 2.1987 cumulative IPC: 2.2019 (Simulation time: 0 hr 2 min 9 sec) 
Heartbeat CPU 0 instructions: 65000000 cycles: 29445211 heartbeat IPC: 2.63584 cumulative IPC: 2.20749 (Simulation time: 0 hr 2 min 11 sec) 
Heartbeat CPU 0 instructions: 66000002 cycles: 29900559 heartbeat IPC: 2.19613 cumulative IPC: 2.20732 (Simulation time: 0 hr 2 min 13 sec) 
Heartbeat CPU 0 instructions: 67000000 cycles: 30441068 heartbeat IPC: 1.8501 cumulative IPC: 2.20097 (Simulation time: 0 hr 2 min 15 sec) 
Heartbeat CPU 0 instructions: 68000000 cycles: 30884096 heartbeat IPC: 2.25719 cumulative IPC: 2.20178 (Simulation time: 0 hr 2 min 17 sec) 
Heartbeat CPU 0 instructions: 69000000 cycles: 31359170 heartbeat IPC: 2.10494 cumulative IPC: 2.20031 (Simulation time: 0 hr 2 min 19 sec) 
*** Reached end of trace for Core: 0 Repeating trace: ../ChampSim_CRC2/trace/bzip2_10M.trace.gz
Heartbeat CPU 0 instructions: 70000000 cycles: 31799494 heartbeat IPC: 2.27105 cumulative IPC: 2.20129 (Simulation time: 0 hr 2 min 22 sec) 
Heartbeat CPU 0 instructions: 71000002 cycles: 32253149 heartbeat IPC: 2.20432 cumulative IPC: 2.20134 (Simulation time: 0 hr 2 min 23 sec) 
Heartbeat CPU 0 instructions: 72000000 cycles: 32706280 heartbeat IPC: 2.20686 cumulative IPC: 2.20141 (Simulation time: 0 hr 2 min 25 sec) 
Heartbeat CPU 0 instructions: 73000002 cycles: 33151969 heartbeat IPC: 2.24372 cumulative IPC: 2.20198 (Simulation time: 0 hr 2 min 28 sec) 
Heartbeat CPU 0 instructions: 74000001 cycles: 33606435 heartbeat IPC: 2.20038 cumulative IPC: 2.20196 (Simulation time: 0 hr 2 min 30 sec) 
Heartbeat CPU 0 instructions: 75000003 cycles: 33985558 heartbeat IPC: 2.63767 cumulative IPC: 2.20682 (Simulation time: 0 hr 2 min 31 sec) 
Heartbeat CPU 0 instructions: 76000000 cycles: 34440607 heartbeat IPC: 2.19756 cumulative IPC: 2.2067 (Simulation time: 0 hr 2 min 33 sec) 
Heartbeat CPU 0 instructions: 77000000 cycles: 34981897 heartbeat IPC: 1.84744 cumulative IPC: 2.20114 (Simulation time: 0 hr 2 min 36 sec) 
Heartbeat CPU 0 instructions: 78000000 cycles: 35428595 heartbeat IPC: 2.23865 cumulative IPC: 2.20161 (Simulation time: 0 hr 2 min 37 sec) 
Heartbeat CPU 0 instructions: 79000000 cycles: 35903049 heartbeat IPC: 2.10769 cumulative IPC: 2.20037 (Simulation time: 0 hr 2 min 40 sec) 
*** Reached end of trace for Core: 0 Repeating trace: ../ChampSim_CRC2/trace/bzip2_10M.trace.gz
Heartbeat CPU 0 instructions: 80000000 cycles: 36343385 heartbeat IPC: 2.27099 cumulative IPC: 2.20123 (Simulation time: 0 hr 2 min 42 sec) 
Heartbeat CPU 0 instructions: 81000002 cycles: 36797919 heartbeat IPC: 2.20006 cumulative IPC: 2.20121 (Simulation time: 0 hr 2 min 44 sec) 
Heartbeat CPU 0 instructions: 82000001 cycles: 37251182 heartbeat IPC: 2.20622 cumulative IPC: 2.20127 (Simulation time: 0 hr 2 min 46 sec) 
Heartbeat CPU 0 instructions: 83000003 cycles: 37697081 heartbeat IPC: 2.24266 cumulative IPC: 2.20176 (Simulation time: 0 hr 2 min 48 sec) 
Heartbeat CPU 0 instructions: 84000000 cycles: 38151894 heartbeat IPC: 2.1987 cumulative IPC: 2.20173 (Simulation time: 0 hr 2 min 50 sec) 
Heartbeat CPU 0 instructions: 85000000 cycles: 38531289 heartbeat IPC: 2.63578 cumulative IPC: 2.206 (Simulation time: 0 hr 2 min 52 sec) 
Heartbeat CPU 0 instructions: 86000002 cycles: 38986637 heartbeat IPC: 2.19613 cumulative IPC: 2.20588 (Simulation time: 0 hr 2 min 54 sec) 
Heartbeat CPU 0 instructions: 87000000 cycles: 39527146 heartbeat IPC: 1.8501 cumulative IPC: 2.20102 (Simulation time: 0 hr 2 min 56 sec) 
Heartbeat CPU 0 instructions: 88000000 cycles: 39970174 heartbeat IPC: 2.25719 cumulative IPC: 2.20164 (Simulation time: 0 hr 2 min 58 sec) 
Heartbeat CPU 0 instructions: 89000000 cycles: 40445248 heartbeat IPC: 2.10494 cumulative IPC: 2.20051 (Simulation time: 0 hr 3 min 0 sec) 
*** Reached end of trace for Core: 0 Repeating trace: ../ChampSim_CRC2/trace/bzip2_10M.trace.gz
Heartbeat CPU 0 instructions: 90000000 cycles: 40885572 heartbeat IPC: 2.27105 cumulative IPC: 2.20127 (Simulation time: 0 hr 3 min 2 sec) 
Heartbeat CPU 0 instructions: 91000002 cycles: 41339227 heartbeat IPC: 2.20432 cumulative IPC: 2.2013 (Simulation time: 0 hr 3 min 4 sec) 
Heartbeat CPU 0 instructions: 92000000 cycles: 41792359 heartbeat IPC: 2.20686 cumulative IPC: 2.20136 (Simulation time: 0 hr 3 min 6 sec) 
Heartbeat CPU 0 instructions: 93000002 cycles: 42238048 heartbeat IPC: 2.24372 cumulative IPC: 2.20181 (Simulation time: 0 hr 3 min 8 sec) 
Heartbeat CPU 0 instructions: 94000001 cycles: 42692514 heartbeat IPC: 2.20038 cumulative IPC: 2.20179 (Simulation time: 0 hr 3 min 10 sec) 
Heartbeat CPU 0 instructions: 95000003 cycles: 43071633 heartbeat IPC: 2.6377 cumulative IPC: 2.20563 (Simulation time: 0 hr 3 min 12 sec) 
Heartbeat CPU 0 instructions: 96000000 cycles: 43526682 heartbeat IPC: 2.19756 cumulative IPC: 2.20554 (Simulation time: 0 hr 3 min 14 sec) 
Heartbeat CPU 0 instructions: 97000000 cycles: 44067971 heartbeat IPC: 1.84744 cumulative IPC: 2.20115 (Simulation time: 0 hr 3 min 16 sec) 
Heartbeat CPU 0 instructions: 98000000 cycles: 44514669 heartbeat IPC: 2.23865 cumulative IPC: 2.20152 (Simulation time: 0 hr 3 min 18 sec) 
Heartbeat CPU 0 instructions: 99000000 cycles: 44989123 heartbeat IPC: 2.10769 cumulative IPC: 2.20053 (Simulation time: 0 hr 3 min 20 sec) 
*** Reached end of trace for Core: 0 Repeating trace: ../ChampSim_CRC2/trace/bzip2_10M.trace.gz
Heartbeat CPU 0 instructions: 100000000 cycles: 45429459 heartbeat IPC: 2.27099 cumulative IPC: 2.20121 (Simulation time: 0 hr 3 min 22 sec) 
Heartbeat CPU 0 instructions: 101000002 cycles: 45883993 heartbeat IPC: 2.20006 cumulative IPC: 2.2012 (Simulation time: 0 hr 3 min 24 sec) 
Heartbeat CPU 0 instructions: 102000001 cycles: 46337256 heartbeat IPC: 2.20622 cumulative IPC: 2.20125 (Simulation time: 0 hr 3 min 26 sec) 
Heartbeat CPU 0 instructions: 103000003 cycles: 46783153 heartbeat IPC: 2.24267 cumulative IPC: 2.20165 (Simulation time: 0 hr 3 min 28 sec) 
Heartbeat CPU 0 instructions: 104000000 cycles: 47237966 heartbeat IPC: 2.1987 cumulative IPC: 2.20162 (Simulation time: 0 hr 3 min 30 sec) 
Heartbeat CPU 0 instructions: 105000000 cycles: 47617352 heartbeat IPC: 2.63584 cumulative IPC: 2.20508 (Simulation time: 0 hr 3 min 32 sec) 
Heartbeat CPU 0 instructions: 106000002 cycles: 48072700 heartbeat IPC: 2.19613 cumulative IPC: 2.20499 (Simulation time: 0 hr 3 min 34 sec) 
Heartbeat CPU 0 instructions: 107000000 cycles: 48613209 heartbeat IPC: 1.8501 cumulative IPC: 2.20105 (Simulation time: 0 hr 3 min 36 sec) 
Heartbeat CPU 0 instructions: 108000000 cycles: 49056237 heartbeat IPC: 2.25719 cumulative IPC: 2.20156 (Simulation time: 0 hr 3 min 38 sec) 
Heartbeat CPU 0 instructions: 109000000 cycles: 49531311 heartbeat IPC: 2.10494 cumulative IPC: 2.20063 (Simulation time: 0 hr 3 min 40 sec) 
*** Reached end of trace for Core: 0 Repeating trace: ../ChampSim_CRC2/trace/bzip2_10M.trace.gz
Heartbeat CPU 0 instructions: 110000000 cycles: 49971635 heartbeat IPC: 2.27105 cumulative IPC: 2.20125 (Simulation time: 0 hr 3 min 42 sec) 
Heartbeat CPU 0 instructions: 111000002 cycles: 50425290 heartbeat IPC: 2.20432 cumulative IPC: 2.20128 (Simulation time: 0 hr 3 min 44 sec) 
Heartbeat CPU 0 instructions: 112000000 cycles: 50878422 heartbeat IPC: 2.20686 cumulative IPC: 2.20133 (Simulation time: 0 hr 3 min 46 sec) 
Heartbeat CPU 0 instructions: 113000002 cycles: 51324111 heartbeat IPC: 2.24372 cumulative IPC: 2.20169 (Simulation time: 0 hr 3 min 48 sec) 
Heartbeat CPU 0 instructions: 114000001 cycles: 51778577 heartbeat IPC: 2.20038 cumulative IPC: 2.20168 (Simulation time: 0 hr 3 min 50 sec) 
Heartbeat CPU 0 instructions: 115000003 cycles: 52157698 heartbeat IPC: 2.63769 cumulative IPC: 2.20485 (Simulation time: 0 hr 3 min 52 sec) 
Heartbeat CPU 0 instructions: 116000000 cycles: 52612747 heartbeat IPC: 2.19756 cumulative IPC: 2.20479 (Simulation time: 0 hr 3 min 54 sec) 
Heartbeat CPU 0 instructions: 117000000 cycles: 53154037 heartbeat IPC: 1.84744 cumulative IPC: 2.20115 (Simulation time: 0 hr 3 min 56 sec) 
Heartbeat CPU 0 instructions: 118000000 cycles: 53600735 heartbeat IPC: 2.23865 cumulative IPC: 2.20146 (Simulation time: 0 hr 3 min 58 sec) 
Heartbeat CPU 0 instructions: 119000000 cycles: 54075189 heartbeat IPC: 2.10769 cumulative IPC: 2.20064 (Simulation time: 0 hr 4 min 0 sec) 
*** Reached end of trace for Core: 0 Repeating trace: ../ChampSim_CRC2/trace/bzip2_10M.trace.gz
Heartbeat CPU 0 instructions: 120000000 cycles: 54515525 heartbeat IPC: 2.27099 cumulative IPC: 2.20121 (Simulation time: 0 hr 4 min 2 sec) 
Heartbeat CPU 0 instructions: 121000002 cycles: 54970059 heartbeat IPC: 2.20006 cumulative IPC: 2.2012 (Simulation time: 0 hr 4 min 4 sec) 
Heartbeat CPU 0 instructions: 122000001 cycles: 55423322 heartbeat IPC: 2.20622 cumulative IPC: 2.20124 (Simulation time: 0 hr 4 min 6 sec) 
Heartbeat CPU 0 instructions: 123000003 cycles: 55869219 heartbeat IPC: 2.24267 cumulative IPC: 2.20157 (Simulation time: 0 hr 4 min 8 sec) 
Heartbeat CPU 0 instructions: 124000000 cycles: 56324032 heartbeat IPC: 2.1987 cumulative IPC: 2.20155 (Simulation time: 0 hr 4 min 10 sec) 
Heartbeat CPU 0 instructions: 125000000 cycles: 56703418 heartbeat IPC: 2.63584 cumulative IPC: 2.20445 (Simulation time: 0 hr 4 min 12 sec) 
Heartbeat CPU 0 instructions: 126000002 cycles: 57158766 heartbeat IPC: 2.19613 cumulative IPC: 2.20439 (Simulation time: 0 hr 4 min 14 sec) 
Heartbeat CPU 0 instructions: 127000000 cycles: 57699275 heartbeat IPC: 1.8501 cumulative IPC: 2.20107 (Simulation time: 0 hr 4 min 16 sec) 
Heartbeat CPU 0 instructions: 128000000 cycles: 58142303 heartbeat IPC: 2.25719 cumulative IPC: 2.2015 (Simulation time: 0 hr 4 min 18 sec) 
Heartbeat CPU 0 instructions: 129000000 cycles: 58617377 heartbeat IPC: 2.10494 cumulative IPC: 2.20071 (Simulation time: 0 hr 4 min 20 sec) 
*** Reached end of trace for Core: 0 Repeating trace: ../ChampSim_CRC2/trace/bzip2_10M.trace.gz
Heartbeat CPU 0 instructions: 130000000 cycles: 59057701 heartbeat IPC: 2.27105 cumulative IPC: 2.20124 (Simulation time: 0 hr 4 min 22 sec) 
Heartbeat CPU 0 instructions: 131000002 cycles: 59511356 heartbeat IPC: 2.20432 cumulative IPC: 2.20126 (Simulation time: 0 hr 4 min 24 sec) 
Heartbeat CPU 0 instructions: 132000000 cycles: 59964488 heartbeat IPC: 2.20686 cumulative IPC: 2.2013 (Simulation time: 0 hr 4 min 26 sec) 
Heartbeat CPU 0 instructions: 133000002 cycles: 60410177 heartbeat IPC: 2.24372 cumulative IPC: 2.20162 (Simulation time: 0 hr 4 min 28 sec) 
Heartbeat CPU 0 instructions: 134000001 cycles: 60864643 heartbeat IPC: 2.20038 cumulative IPC: 2.20161 (Simulation time: 0 hr 4 min 30 sec) 
Heartbeat CPU 0 instructions: 135000003 cycles: 61243762 heartbeat IPC: 2.6377 cumulative IPC: 2.20431 (Simulation time: 0 hr 4 min 32 sec) 
Heartbeat CPU 0 instructions: 136000000 cycles: 61698811 heartbeat IPC: 2.19756 cumulative IPC: 2.20426 (Simulation time: 0 hr 4 min 34 sec) 
Heartbeat CPU 0 instructions: 137000000 cycles: 62240101 heartbeat IPC: 1.84744 cumulative IPC: 2.20115 (Simulation time: 0 hr 4 min 36 sec) 
Heartbeat CPU 0 instructions: 138000000 cycles: 62686799 heartbeat IPC: 2.23865 cumulative IPC: 2.20142 (Simulation time: 0 hr 4 min 38 sec) 
Heartbeat CPU 0 instructions: 139000000 cycles: 63161253 heartbeat IPC: 2.10769 cumulative IPC: 2.20072 (Simulation time: 0 hr 4 min 40 sec) 
*** Reached end of trace for Core: 0 Repeating trace: ../ChampSim_CRC2/trace/bzip2_10M.trace.gz
Heartbeat CPU 0 instructions: 140000000 cycles: 63601589 heartbeat IPC: 2.27099 cumulative IPC: 2.2012 (Simulation time: 0 hr 4 min 42 sec) 
Heartbeat CPU 0 instructions: 141000002 cycles: 64056123 heartbeat IPC: 2.20006 cumulative IPC: 2.20119 (Simulation time: 0 hr 4 min 44 sec) 
Heartbeat CPU 0 instructions: 142000001 cycles: 64509386 heartbeat IPC: 2.20622 cumulative IPC: 2.20123 (Simulation time: 0 hr 4 min 46 sec) 
Heartbeat CPU 0 instructions: 143000003 cycles: 64955287 heartbeat IPC: 2.24265 cumulative IPC: 2.20151 (Simulation time: 0 hr 4 min 48 sec) 
Heartbeat CPU 0 instructions: 144000000 cycles: 65410100 heartbeat IPC: 2.1987 cumulative IPC: 2.20149 (Simulation time: 0 hr 4 min 50 sec) 
Heartbeat CPU 0 instructions: 145000000 cycles: 65789483 heartbeat IPC: 2.63586 cumulative IPC: 2.204 (Simulation time: 0 hr 4 min 52 sec) 
Heartbeat CPU 0 instructions: 146000002 cycles: 66244831 heartbeat IPC: 2.19613 cumulative IPC: 2.20395 (Simulation time: 0 hr 4 min 54 sec) 
Heartbeat CPU 0 instructions: 147000000 cycles: 66785340 heartbeat IPC: 1.8501 cumulative IPC: 2.20108 (Simulation time: 0 hr 4 min 56 sec) 
Heartbeat CPU 0 instructions: 148000000 cycles: 67228368 heartbeat IPC: 2.25719 cumulative IPC: 2.20145 (Simulation time: 0 hr 4 min 58 sec) 
Heartbeat CPU 0 instructions: 149000000 cycles: 67703442 heartbeat IPC: 2.10494 cumulative IPC: 2.20077 (Simulation time: 0 hr 5 min 0 sec) 
*** Reached end of trace for Core: 0 Repeating trace: ../ChampSim_CRC2/trace/bzip2_10M.trace.gz
Heartbeat CPU 0 instructions: 150000000 cycles: 68143766 heartbeat IPC: 2.27105 cumulative IPC: 2.20123 (Simulation time: 0 hr 5 min 2 sec) 
Heartbeat CPU 0 instructions: 151000002 cycles: 68597421 heartbeat IPC: 2.20432 cumulative IPC: 2.20125 (Simulation time: 0 hr 5 min 4 sec) 
Heartbeat CPU 0 instructions: 152000000 cycles: 69050553 heartbeat IPC: 2.20686 cumulative IPC: 2.20129 (Simulation time: 0 hr 5 min 6 sec) 
Heartbeat CPU 0 instructions: 153000002 cycles: 69496242 heartbeat IPC: 2.24372 cumulative IPC: 2.20156 (Simulation time: 0 hr 5 min 8 sec) 
Heartbeat CPU 0 instructions: 154000001 cycles: 69950708 heartbeat IPC: 2.20038 cumulative IPC: 2.20155 (Simulation time: 0 hr 5 min 10 sec) 
Heartbeat CPU 0 instructions: 155000003 cycles: 70329829 heartbeat IPC: 2.63769 cumulative IPC: 2.2039 (Simulation time: 0 hr 5 min 12 sec) 
Heartbeat CPU 0 instructions: 156000000 cycles: 70784878 heartbeat IPC: 2.19756 cumulative IPC: 2.20386 (Simulation time: 0 hr 5 min 14 sec) 
Heartbeat CPU 0 instructions: 157000000 cycles: 71326168 heartbeat IPC: 1.84744 cumulative IPC: 2.20116 (Simulation time: 0 hr 5 min 16 sec) 
Heartbeat CPU 0 instructions: 158000000 cycles: 71772866 heartbeat IPC: 2.23865 cumulative IPC: 2.20139 (Simulation time: 0 hr 5 min 18 sec) 
Heartbeat CPU 0 instructions: 159000000 cycles: 72247320 heartbeat IPC: 2.10769 cumulative IPC: 2.20077 (Simulation time: 0 hr 5 min 20 sec) 
*** Reached end of trace for Core: 0 Repeating trace: ../ChampSim_CRC2/trace/bzip2_10M.trace.gz
Heartbeat CPU 0 instructions: 160000000 cycles: 72687656 heartbeat IPC: 2.27099 cumulative IPC: 2.2012 (Simulation time: 0 hr 5 min 22 sec) 
Heartbeat CPU 0 instructions: 161000002 cycles: 73142190 heartbeat IPC: 2.20006 cumulative IPC: 2.20119 (Simulation time: 0 hr 5 min 24 sec) 
Heartbeat CPU 0 instructions: 162000001 cycles: 73595453 heartbeat IPC: 2.20622 cumulative IPC: 2.20122 (Simulation time: 0 hr 5 min 26 sec) 
Heartbeat CPU 0 instructions: 163000003 cycles: 74041354 heartbeat IPC: 2.24265 cumulative IPC: 2.20147 (Simulation time: 0 hr 5 min 28 sec) 
Heartbeat CPU 0 instructions: 164000000 cycles: 74496167 heartbeat IPC: 2.1987 cumulative IPC: 2.20146 (Simulation time: 0 hr 5 min 31 sec) 
Heartbeat CPU 0 instructions: 165000000 cycles: 74875551 heartbeat IPC: 2.63585 cumulative IPC: 2.20366 (Simulation time: 0 hr 5 min 32 sec) 
Heartbeat CPU 0 instructions: 166000002 cycles: 75330899 heartbeat IPC: 2.19613 cumulative IPC: 2.20361 (Simulation time: 0 hr 5 min 34 sec) 
Heartbeat CPU 0 instructions: 167000000 cycles: 75871408 heartbeat IPC: 1.8501 cumulative IPC: 2.20109 (Simulation time: 0 hr 5 min 36 sec) 
Heartbeat CPU 0 instructions: 168000000 cycles: 76314436 heartbeat IPC: 2.25719 cumulative IPC: 2.20142 (Simulation time: 0 hr 5 min 38 sec) 
Heartbeat CPU 0 instructions: 169000000 cycles: 76789510 heartbeat IPC: 2.10494 cumulative IPC: 2.20082 (Simulation time: 0 hr 5 min 41 sec) 
*** Reached end of trace for Core: 0 Repeating trace: ../ChampSim_CRC2/trace/bzip2_10M.trace.gz
Heartbeat CPU 0 instructions: 170000000 cycles: 77229834 heartbeat IPC: 2.27105 cumulative IPC: 2.20122 (Simulation time: 0 hr 5 min 43 sec) 
Heartbeat CPU 0 instructions: 171000002 cycles: 77683489 heartbeat IPC: 2.20432 cumulative IPC: 2.20124 (Simulation time: 0 hr 5 min 45 sec) 
Heartbeat CPU 0 instructions: 172000000 cycles: 78136621 heartbeat IPC: 2.20686 cumulative IPC: 2.20127 (Simulation time: 0 hr 5 min 47 sec) 
Heartbeat CPU 0 instructions: 173000002 cycles: 78582310 heartbeat IPC: 2.24372 cumulative IPC: 2.20151 (Simulation time: 0 hr 5 min 49 sec) 
Heartbeat CPU 0 instructions: 174000001 cycles: 79036776 heartbeat IPC: 2.20038 cumulative IPC: 2.20151 (Simulation time: 0 hr 5 min 51 sec) 
Heartbeat CPU 0 instructions: 175000003 cycles: 79415895 heartbeat IPC: 2.6377 cumulative IPC: 2.20359 (Simulation time: 0 hr 5 min 52 sec) 
Heartbeat CPU 0 instructions: 176000000 cycles: 79870944 heartbeat IPC: 2.19756 cumulative IPC: 2.20355 (Simulation time: 0 hr 5 min 54 sec) 
Heartbeat CPU 0 instructions: 177000000 cycles: 80412234 heartbeat IPC: 1.84744 cumulative IPC: 2.20116 (Simulation time: 0 hr 5 min 57 sec) 
Heartbeat CPU 0 instructions: 178000000 cycles: 80858932 heartbeat IPC: 2.23865 cumulative IPC: 2.20136 (Simulation time: 0 hr 5 min 58 sec) 
Heartbeat CPU 0 instructions: 179000000 cycles: 81333386 heartbeat IPC: 2.10769 cumulative IPC: 2.20082 (Simulation time: 0 hr 6 min 1 sec) 
*** Reached end of trace for Core: 0 Repeating trace: ../ChampSim_CRC2/trace/bzip2_10M.trace.gz
Heartbeat CPU 0 instructions: 180000000 cycles: 81773722 heartbeat IPC: 2.27099 cumulative IPC: 2.2012 (Simulation time: 0 hr 6 min 3 sec) 
Heartbeat CPU 0 instructions: 181000002 cycles: 82228256 heartbeat IPC: 2.20006 cumulative IPC: 2.20119 (Simulation time: 0 hr 6 min 5 sec) 
Heartbeat CPU 0 instructions: 182000001 cycles: 82681519 heartbeat IPC: 2.20622 cumulative IPC: 2.20122 (Simulation time: 0 hr 6 min 7 sec) 
Heartbeat CPU 0 instructions: 183000003 cycles: 83127420 heartbeat IPC: 2.24265 cumulative IPC: 2.20144 (Simulation time: 0 hr 6 min 9 sec) 
Heartbeat CPU 0 instructions: 184000000 cycles: 83582233 heartbeat IPC: 2.1987 cumulative IPC: 2.20142 (Simulation time: 0 hr 6 min 11 sec) 
Heartbeat CPU 0 instructions: 185000000 cycles: 83961617 heartbeat IPC: 2.63585 cumulative IPC: 2.20339 (Simulation time: 0 hr 6 min 12 sec) 
Heartbeat CPU 0 instructions: 186000002 cycles: 84416965 heartbeat IPC: 2.19613 cumulative IPC: 2.20335 (Simulation time: 0 hr 6 min 14 sec) 
Heartbeat CPU 0 instructions: 187000000 cycles: 84957474 heartbeat IPC: 1.8501 cumulative IPC: 2.2011 (Simulation time: 0 hr 6 min 17 sec) 
Heartbeat CPU 0 instructions: 188000000 cycles: 85400502 heartbeat IPC: 2.25719 cumulative IPC: 2.20139 (Simulation time: 0 hr 6 min 19 sec) 
Heartbeat CPU 0 instructions: 189000000 cycles: 85875576 heartbeat IPC: 2.10494 cumulative IPC: 2.20086 (Simulation time: 0 hr 6 min 21 sec) 
*** Reached end of trace for Core: 0 Repeating trace: ../ChampSim_CRC2/trace/bzip2_10M.trace.gz
Heartbeat CPU 0 instructions: 190000000 cycles: 86315900 heartbeat IPC: 2.27105 cumulative IPC: 2.20122 (Simulation time: 0 hr 6 min 23 sec) 
Heartbeat CPU 0 instructions: 191000002 cycles: 86769555 heartbeat IPC: 2.20432 cumulative IPC: 2.20123 (Simulation time: 0 hr 6 min 25 sec) 
Heartbeat CPU 0 instructions: 192000000 cycles: 87222687 heartbeat IPC: 2.20686 cumulative IPC: 2.20126 (Simulation time: 0 hr 6 min 27 sec) 
Heartbeat CPU 0 instructions: 193000002 cycles: 87668376 heartbeat IPC: 2.24372 cumulative IPC: 2.20148 (Simulation time: 0 hr 6 min 29 sec) 
Heartbeat CPU 0 instructions: 194000001 cycles: 88122842 heartbeat IPC: 2.20038 cumulative IPC: 2.20147 (Simulation time: 0 hr 6 min 31 sec) 
Heartbeat CPU 0 instructions: 195000003 cycles: 88501963 heartbeat IPC: 2.63769 cumulative IPC: 2.20334 (Simulation time: 0 hr 6 min 33 sec) 
Heartbeat CPU 0 instructions: 196000000 cycles: 88957012 heartbeat IPC: 2.19756 cumulative IPC: 2.20331 (Simulation time: 0 hr 6 min 35 sec) 
Heartbeat CPU 0 instructions: 197000000 cycles: 89498302 heartbeat IPC: 1.84744 cumulative IPC: 2.20116 (Simulation time: 0 hr 6 min 37 sec) 
Heartbeat CPU 0 instructions: 198000000 cycles: 89945000 heartbeat IPC: 2.23865 cumulative IPC: 2.20135 (Simulation time: 0 hr 6 min 39 sec) 
Heartbeat CPU 0 instructions: 199000000 cycles: 90419454 heartbeat IPC: 2.10769 cumulative IPC: 2.20085 (Simulation time: 0 hr 6 min 41 sec) 
*** Reached end of trace for Core: 0 Repeating trace: ../ChampSim_CRC2/trace/bzip2_10M.trace.gz
Heartbeat CPU 0 instructions: 200000000 cycles: 90859790 heartbeat IPC: 2.27099 cumulative IPC: 2.20119 (Simulation time: 0 hr 6 min 43 sec) 

Warmup complete CPU 0 instructions: 200000001 cycles: 90859791 (Simulation time: 0 hr 6 min 43 sec) 

Heartbeat CPU 0 instructions: 201000002 cycles: 92253812 heartbeat IPC: 0.71735 cumulative IPC: 0.71735 (Simulation time: 0 hr 6 min 45 sec) 
Heartbeat CPU 0 instructions: 202000001 cycles: 93732832 heartbeat IPC: 0.676123 cumulative IPC: 0.696127 (Simulation time: 0 hr 6 min 47 sec) 
Heartbeat CPU 0 instructions: 203000002 cycles: 95208578 heartbeat IPC: 0.677624 cumulative IPC: 0.689848 (Simulation time: 0 hr 6 min 49 sec) 
Heartbeat CPU 0 instructions: 204000000 cycles: 96316169 heartbeat IPC: 0.902859 cumulative IPC: 0.733087 (Simulation time: 0 hr 6 min 51 sec) 
Heartbeat CPU 0 instructions: 205000002 cycles: 97197353 heartbeat IPC: 1.13484 cumulative IPC: 0.788947 (Simulation time: 0 hr 6 min 53 sec) 
Heartbeat CPU 0 instructions: 206000002 cycles: 98109227 heartbeat IPC: 1.09664 cumulative IPC: 0.827651 (Simulation time: 0 hr 6 min 55 sec) 
Heartbeat CPU 0 instructions: 207000000 cycles: 98902045 heartbeat IPC: 1.26132 cumulative IPC: 0.870403 (Simulation time: 0 hr 6 min 57 sec) 
Heartbeat CPU 0 instructions: 208000000 cycles: 100275941 heartbeat IPC: 0.727857 cumulative IPC: 0.849604 (Simulation time: 0 hr 6 min 59 sec) 
Heartbeat CPU 0 instructions: 209000002 cycles: 101609587 heartbeat IPC: 0.749826 cumulative IPC: 0.837225 (Simulation time: 0 hr 7 min 0 sec) 
*** Reached end of trace for Core: 0 Repeating trace: ../ChampSim_CRC2/trace/bzip2_10M.trace.gz
Heartbeat CPU 0 instructions: 210000001 cycles: 103181124 heartbeat IPC: 0.636319 cumulative IPC: 0.811601 (Simulation time: 0 hr 7 min 2 sec) 
Heartbeat CPU 0 instructions: 211000002 cycles: 104574459 heartbeat IPC: 0.717703 cumulative IPC: 0.802061 (Simulation time: 0 hr 7 min 4 sec) 
Heartbeat CPU 0 instructions: 212000000 cycles: 106052498 heartbeat IPC: 0.676571 cumulative IPC: 0.789853 (Simulation time: 0 hr 7 min 6 sec) 
Heartbeat CPU 0 instructions: 213000002 cycles: 107528839 heartbeat IPC: 0.677352 cumulative IPC: 0.779889 (Simulation time: 0 hr 7 min 8 sec) 
Heartbeat CPU 0 instructions: 214000002 cycles: 108635914 heartbeat IPC: 0.903281 cumulative IPC: 0.787573 (Simulation time: 0 hr 7 min 10 sec) 
Heartbeat CPU 0 instructions: 215000000 cycles: 109516712 heartbeat IPC: 1.13533 cumulative IPC: 0.803991 (Simulation time: 0 hr 7 min 12 sec) 
Heartbeat CPU 0 instructions: 216000000 cycles: 110429251 heartbeat IPC: 1.09584 cumulative IPC: 0.8176 (Simulation time: 0 hr 7 min 14 sec) 
Heartbeat CPU 0 instructions: 217000000 cycles: 111223214 heartbeat IPC: 1.2595 cumulative IPC: 0.83483 (Simulation time: 0 hr 7 min 16 sec) 
Heartbeat CPU 0 instructions: 218000000 cycles: 112597810 heartbeat IPC: 0.727486 cumulative IPC: 0.828042 (Simulation time: 0 hr 7 min 18 sec) 
Heartbeat CPU 0 instructions: 219000002 cycles: 113931820 heartbeat IPC: 0.749621 cumulative IPC: 0.823508 (Simulation time: 0 hr 7 min 20 sec) 
*** Reached end of trace for Core: 0 Repeating trace: ../ChampSim_CRC2/trace/bzip2_10M.trace.gz
Heartbeat CPU 0 instructions: 220000000 cycles: 115504895 heartbeat IPC: 0.635696 cumulative IPC: 0.81152 (Simulation time: 0 hr 7 min 22 sec) 
Heartbeat CPU 0 instructions: 221000002 cycles: 116899336 heartbeat IPC: 0.717135 cumulative IPC: 0.806466 (Simulation time: 0 hr 7 min 24 sec) 
Heartbeat CPU 0 instructions: 222000001 cycles: 118378356 heartbeat IPC: 0.676123 cumulative IPC: 0.79946 (Simulation time: 0 hr 7 min 26 sec) 
Heartbeat CPU 0 instructions: 223000002 cycles: 119854243 heartbeat IPC: 0.677559 cumulative IPC: 0.793255 (Simulation time: 0 hr 7 min 28 sec) 
Heartbeat CPU 0 instructions: 224000000 cycles: 120961721 heartbeat IPC: 0.902951 cumulative IPC: 0.797291 (Simulation time: 0 hr 7 min 30 sec) 
Heartbeat CPU 0 instructions: 225000002 cycles: 121842212 heartbeat IPC: 1.13573 cumulative IPC: 0.806909 (Simulation time: 0 hr 7 min 32 sec) 
Heartbeat CPU 0 instructions: 226000002 cycles: 122754086 heartbeat IPC: 1.09664 cumulative IPC: 0.815193 (Simulation time: 0 hr 7 min 34 sec) 
Heartbeat CPU 0 instructions: 227000000 cycles: 123546794 heartbeat IPC: 1.2615 cumulative IPC: 0.826016 (Simulation time: 0 hr 7 min 36 sec) 
Heartbeat CPU 0 instructions: 228000000 cycles: 124920690 heartbeat IPC: 0.727857 cumulative IPC: 0.822057 (Simulation time: 0 hr 7 min 38 sec) 
Heartbeat CPU 0 instructions: 229000002 cycles: 126254336 heartbeat IPC: 0.749826 cumulative IPC: 0.819335 (Simulation time: 0 hr 7 min 40 sec) 
*** Reached end of trace for Core: 0 Repeating trace: ../ChampSim_CRC2/trace/bzip2_10M.trace.gz
Heartbeat CPU 0 instructions: 230000001 cycles: 127825873 heartbeat IPC: 0.636319 cumulative IPC: 0.811555 (Simulation time: 0 hr 7 min 42 sec) 
Heartbeat CPU 0 instructions: 231000002 cycles: 129219208 heartbeat IPC: 0.717703 cumulative IPC: 0.808146 (Simulation time: 0 hr 7 min 44 sec) 
Heartbeat CPU 0 instructions: 232000000 cycles: 130697247 heartbeat IPC: 0.676571 cumulative IPC: 0.803264 (Simulation time: 0 hr 7 min 46 sec) 
Heartbeat CPU 0 instructions: 233000002 cycles: 132173598 heartbeat IPC: 0.677347 cumulative IPC: 0.798764 (Simulation time: 0 hr 7 min 48 sec) 
Heartbeat CPU 0 instructions: 234000002 cycles: 133280976 heartbeat IPC: 0.903034 cumulative IPC: 0.801486 (Simulation time: 0 hr 7 min 50 sec) 
Heartbeat CPU 0 instructions: 235000000 cycles: 134161899 heartbeat IPC: 1.13517 cumulative IPC: 0.808275 (Simulation time: 0 hr 7 min 52 sec) 
Heartbeat CPU 0 instructions: 236000000 cycles: 135074438 heartbeat IPC: 1.09584 cumulative IPC: 0.81421 (Simulation time: 0 hr 7 min 54 sec) 
Heartbeat CPU 0 instructions: 237000000 cycles: 135868401 heartbeat IPC: 1.2595 cumulative IPC: 0.822065 (Simulation time: 0 hr 7 min 56 sec) 
Heartbeat CPU 0 instructions: 238000000 cycles: 137242997 heartbeat IPC: 0.727486 cumulative IPC: 0.819262 (Simulation time: 0 hr 7 min 58 sec) 
Heartbeat CPU 0 instructions: 239000002 cycles: 138577007 heartbeat IPC: 0.749621 cumulative IPC: 0.817315 (Simulation time: 0 hr 8 min 0 sec) 
*** Reached end of trace for Core: 0 Repeating trace: ../ChampSim_CRC2/trace/bzip2_10M.trace.gz
Heartbeat CPU 0 instructions: 240000000 cycles: 140150082 heartbeat IPC: 0.635696 cumulative IPC: 0.811519 (Simulation time: 0 hr 8 min 2 sec) 
Heartbeat CPU 0 instructions: 241000002 cycles: 141544523 heartbeat IPC: 0.717135 cumulative IPC: 0.808922 (Simulation time: 0 hr 8 min 3 sec) 
Heartbeat CPU 0 instructions: 242000001 cycles: 143023543 heartbeat IPC: 0.676123 cumulative IPC: 0.805157 (Simulation time: 0 hr 8 min 5 sec) 
Heartbeat CPU 0 instructions: 243000002 cycles: 144499231 heartbeat IPC: 0.677651 cumulative IPC: 0.801649 (Simulation time: 0 hr 8 min 7 sec) 
Heartbeat CPU 0 instructions: 244000000 cycles: 145606602 heartbeat IPC: 0.903038 cumulative IPC: 0.8037 (Simulation time: 0 hr 8 min 9 sec) 
Heartbeat CPU 0 instructions: 245000002 cycles: 146487379 heartbeat IPC: 1.13536 cumulative IPC: 0.808951 (Simulation time: 0 hr 8 min 11 sec) 
Heartbeat CPU 0 instructions: 246000002 cycles: 147399253 heartbeat IPC: 1.09664 cumulative IPC: 0.813591 (Simulation time: 0 hr 8 min 13 sec) 
Heartbeat CPU 0 instructions: 247000000 cycles: 148191961 heartbeat IPC: 1.2615 cumulative IPC: 0.819784 (Simulation time: 0 hr 8 min 15 sec) 
Heartbeat CPU 0 instructions: 248000000 cycles: 149565857 heartbeat IPC: 0.727857 cumulative IPC: 0.817633 (Simulation time: 0 hr 8 min 17 sec) 
Heartbeat CPU 0 instructions: 249000002 cycles: 150899503 heartbeat IPC: 0.749826 cumulative IPC: 0.816127 (Simulation time: 0 hr 8 min 19 sec) 
*** Reached end of trace for Core: 0 Repeating trace: ../ChampSim_CRC2/trace/bzip2_10M.trace.gz
Heartbeat CPU 0 instructions: 250000001 cycles: 152471040 heartbeat IPC: 0.636319 cumulative IPC: 0.81154 (Simulation time: 0 hr 8 min 21 sec) 
Heartbeat CPU 0 instructions: 251000002 cycles: 153864375 heartbeat IPC: 0.717703 cumulative IPC: 0.809465 (Simulation time: 0 hr 8 min 23 sec) 
Heartbeat CPU 0 instructions: 252000000 cycles: 155342414 heartbeat IPC: 0.676571 cumulative IPC: 0.806419 (Simulation time: 0 hr 8 min 25 sec) 
Heartbeat CPU 0 instructions: 253000002 cycles: 156819135 heartbeat IPC: 0.677177 cumulative IPC: 0.803525 (Simulation time: 0 hr 8 min 27 sec) 
Heartbeat CPU 0 instructions: 254000002 cycles: 157926265 heartbeat IPC: 0.903236 cumulative IPC: 0.805171 (Simulation time: 0 hr 8 min 29 sec) 
Heartbeat CPU 0 instructions: 255000000 cycles: 158807399 heartbeat IPC: 1.1349 cumulative IPC: 0.809447 (Simulation time: 0 hr 8 min 31 sec) 
Heartbeat CPU 0 instructions: 256000000 cycles: 159719938 heartbeat IPC: 1.09584 cumulative IPC: 0.813242 (Simulation time: 0 hr 8 min 33 sec) 
Heartbeat CPU 0 instructions: 257000000 cycles: 160513791 heartbeat IPC: 1.25968 cumulative IPC: 0.818331 (Simulation time: 0 hr 8 min 35 sec) 
Heartbeat CPU 0 instructions: 258000000 cycles: 161888387 heartbeat IPC: 0.727486 cumulative IPC: 0.816572 (Simulation time: 0 hr 8 min 37 sec) 
Heartbeat CPU 0 instructions: 259000002 cycles: 163222397 heartbeat IPC: 0.749621 cumulative IPC: 0.815338 (Simulation time: 0 hr 8 min 39 sec) 
*** Reached end of trace for Core: 0 Repeating trace: ../ChampSim_CRC2/trace/bzip2_10M.trace.gz
Heartbeat CPU 0 instructions: 260000000 cycles: 164795472 heartbeat IPC: 0.635696 cumulative IPC: 0.811516 (Simulation time: 0 hr 8 min 41 sec) 
Heartbeat CPU 0 instructions: 261000002 cycles: 166189913 heartbeat IPC: 0.717135 cumulative IPC: 0.809769 (Simulation time: 0 hr 8 min 43 sec) 
Heartbeat CPU 0 instructions: 262000001 cycles: 167668933 heartbeat IPC: 0.676123 cumulative IPC: 0.807196 (Simulation time: 0 hr 8 min 45 sec) 
Heartbeat CPU 0 instructions: 263000002 cycles: 169144664 heartbeat IPC: 0.677631 cumulative IPC: 0.804753 (Simulation time: 0 hr 8 min 47 sec) 
Heartbeat CPU 0 instructions: 264000000 cycles: 170252139 heartbeat IPC: 0.902953 cumulative IPC: 0.806123 (Simulation time: 0 hr 8 min 49 sec) 
Heartbeat CPU 0 instructions: 265000002 cycles: 171133051 heartbeat IPC: 1.13519 cumulative IPC: 0.809734 (Simulation time: 0 hr 8 min 51 sec) 
Heartbeat CPU 0 instructions: 266000002 cycles: 172044925 heartbeat IPC: 1.09664 cumulative IPC: 0.812957 (Simulation time: 0 hr 8 min 53 sec) 
Heartbeat CPU 0 instructions: 267000000 cycles: 172837633 heartbeat IPC: 1.2615 cumulative IPC: 0.817294 (Simulation time: 0 hr 8 min 55 sec) 
Heartbeat CPU 0 instructions: 268000000 cycles: 174211529 heartbeat IPC: 0.727857 cumulative IPC: 0.81582 (Simulation time: 0 hr 8 min 57 sec) 
Heartbeat CPU 0 instructions: 269000002 cycles: 175545175 heartbeat IPC: 0.749826 cumulative IPC: 0.814781 (Simulation time: 0 hr 8 min 59 sec) 
*** Reached end of trace for Core: 0 Repeating trace: ../ChampSim_CRC2/trace/bzip2_10M.trace.gz
Heartbeat CPU 0 instructions: 270000001 cycles: 177116712 heartbeat IPC: 0.636319 cumulative IPC: 0.811529 (Simulation time: 0 hr 9 min 1 sec) 
Heartbeat CPU 0 instructions: 271000002 cycles: 178510047 heartbeat IPC: 0.717703 cumulative IPC: 0.810038 (Simulation time: 0 hr 9 min 3 sec) 
Heartbeat CPU 0 instructions: 272000000 cycles: 179988086 heartbeat IPC: 0.676571 cumulative IPC: 0.807824 (Simulation time: 0 hr 9 min 4 sec) 
Heartbeat CPU 0 instructions: 273000002 cycles: 181464477 heartbeat IPC: 0.677329 cumulative IPC: 0.805698 (Simulation time: 0 hr 9 min 6 sec) 
Heartbeat CPU 0 instructions: 274000002 cycles: 182571897 heartbeat IPC: 0.903 cumulative IPC: 0.806873 (Simulation time: 0 hr 9 min 8 sec) 
Heartbeat CPU 0 instructions: 275000000 cycles: 183452559 heartbeat IPC: 1.13551 cumulative IPC: 0.809998 (Simulation time: 0 hr 9 min 10 sec) 
Heartbeat CPU 0 instructions: 276000000 cycles: 184365098 heartbeat IPC: 1.09584 cumulative IPC: 0.812788 (Simulation time: 0 hr 9 min 12 sec) 
Heartbeat CPU 0 instructions: 277000000 cycles: 185159061 heartbeat IPC: 1.2595 cumulative IPC: 0.816549 (Simulation time: 0 hr 9 min 14 sec) 
Heartbeat CPU 0 instructions: 278000000 cycles: 186533657 heartbeat IPC: 0.727486 cumulative IPC: 0.81527 (Simulation time: 0 hr 9 min 16 sec) 
Heartbeat CPU 0 instructions: 279000002 cycles: 187867667 heartbeat IPC: 0.749621 cumulative IPC: 0.814367 (Simulation time: 0 hr 9 min 18 sec) 
*** Reached end of trace for Core: 0 Repeating trace: ../ChampSim_CRC2/trace/bzip2_10M.trace.gz
Heartbeat CPU 0 instructions: 280000000 cycles: 189440742 heartbeat IPC: 0.635696 cumulative IPC: 0.811516 (Simulation time: 0 hr 9 min 20 sec) 
Heartbeat CPU 0 instructions: 281000002 cycles: 190835183 heartbeat IPC: 0.717135 cumulative IPC: 0.810199 (Simulation time: 0 hr 9 min 22 sec) 
Heartbeat CPU 0 instructions: 282000001 cycles: 192314203 heartbeat IPC: 0.676123 cumulative IPC: 0.808245 (Simulation time: 0 hr 9 min 24 sec) 
Heartbeat CPU 0 instructions: 283000002 cycles: 193789960 heartbeat IPC: 0.677619 cumulative IPC: 0.806372 (Simulation time: 0 hr 9 min 26 sec) 
Heartbeat CPU 0 instructions: 284000000 cycles: 194897445 heartbeat IPC: 0.902945 cumulative IPC: 0.8074 (Simulation time: 0 hr 9 min 28 sec) 
Heartbeat CPU 0 instructions: 285000002 cycles: 195777956 heartbeat IPC: 1.13571 cumulative IPC: 0.810155 (Simulation time: 0 hr 9 min 30 sec) 
Heartbeat CPU 0 instructions: 286000002 cycles: 196689830 heartbeat IPC: 1.09664 cumulative IPC: 0.812624 (Simulation time: 0 hr 9 min 32 sec) 
Heartbeat CPU 0 instructions: 287000000 cycles: 197482538 heartbeat IPC: 1.2615 cumulative IPC: 0.815961 (Simulation time: 0 hr 9 min 34 sec) 
Heartbeat CPU 0 instructions: 288000000 cycles: 198856434 heartbeat IPC: 0.727857 cumulative IPC: 0.81484 (Simulation time: 0 hr 9 min 36 sec) 
Heartbeat CPU 0 instructions: 289000002 cycles: 200190080 heartbeat IPC: 0.749826 cumulative IPC: 0.814047 (Simulation time: 0 hr 9 min 38 sec) 
*** Reached end of trace for Core: 0 Repeating trace: ../ChampSim_CRC2/trace/bzip2_10M.trace.gz
Heartbeat CPU 0 instructions: 290000001 cycles: 201761617 heartbeat IPC: 0.636319 cumulative IPC: 0.811529 (Simulation time: 0 hr 9 min 40 sec) 
Heartbeat CPU 0 instructions: 291000002 cycles: 203154952 heartbeat IPC: 0.717703 cumulative IPC: 0.810364 (Simulation time: 0 hr 9 min 42 sec) 
Heartbeat CPU 0 instructions: 292000000 cycles: 204632991 heartbeat IPC: 0.676571 cumulative IPC: 0.808626 (Simulation time: 0 hr 9 min 44 sec) 
Heartbeat CPU 0 instructions: 293000002 cycles: 206109463 heartbeat IPC: 0.677292 cumulative IPC: 0.806944 (Simulation time: 0 hr 9 min 46 sec) 
Heartbeat CPU 0 instructions: 294000002 cycles: 207216785 heartbeat IPC: 0.90308 cumulative IPC: 0.807859 (Simulation time: 0 hr 9 min 48 sec) 
Heartbeat CPU 0 instructions: 295000000 cycles: 208097914 heartbeat IPC: 1.13491 cumulative IPC: 0.810317 (Simulation time: 0 hr 9 min 50 sec) 
Heartbeat CPU 0 instructions: 296000000 cycles: 209010453 heartbeat IPC: 1.09584 cumulative IPC: 0.812522 (Simulation time: 0 hr 9 min 52 sec) 
Heartbeat CPU 0 instructions: 297000000 cycles: 209804306 heartbeat IPC: 1.25968 cumulative IPC: 0.815506 (Simulation time: 0 hr 9 min 54 sec) 
Heartbeat CPU 0 instructions: 298000000 cycles: 211178902 heartbeat IPC: 0.727486 cumulative IPC: 0.814501 (Simulation time: 0 hr 9 min 56 sec) 
Heartbeat CPU 0 instructions: 299000002 cycles: 212512912 heartbeat IPC: 0.749621 cumulative IPC: 0.813789 (Simulation time: 0 hr 9 min 58 sec) 
*** Reached end of trace for Core: 0 Repeating trace: ../ChampSim_CRC2/trace/bzip2_10M.trace.gz
Heartbeat CPU 0 instructions: 300000000 cycles: 214085987 heartbeat IPC: 0.635696 cumulative IPC: 0.811516 (Simulation time: 0 hr 10 min 0 sec) 
Heartbeat CPU 0 instructions: 301000002 cycles: 215480428 heartbeat IPC: 0.717135 cumulative IPC: 0.81046 (Simulation time: 0 hr 10 min 2 sec) 
Heartbeat CPU 0 instructions: 302000001 cycles: 216959448 heartbeat IPC: 0.676123 cumulative IPC: 0.808884 (Simulation time: 0 hr 10 min 4 sec) 
Heartbeat CPU 0 instructions: 303000002 cycles: 218435435 heartbeat IPC: 0.677513 cumulative IPC: 0.807364 (Simulation time: 0 hr 10 min 6 sec) 
Heartbeat CPU 0 instructions: 304000000 cycles: 219542856 heartbeat IPC: 0.902997 cumulative IPC: 0.808187 (Simulation time: 0 hr 10 min 7 sec) 
Heartbeat CPU 0 instructions: 305000002 cycles: 220424024 heartbeat IPC: 1.13486 cumulative IPC: 0.810409 (Simulation time: 0 hr 10 min 10 sec) 
Heartbeat CPU 0 instructions: 306000002 cycles: 221335898 heartbeat IPC: 1.09664 cumulative IPC: 0.812409 (Simulation time: 0 hr 10 min 12 sec) 
Heartbeat CPU 0 instructions: 307000000 cycles: 222128606 heartbeat IPC: 1.2615 cumulative IPC: 0.815121 (Simulation time: 0 hr 10 min 14 sec) 
Heartbeat CPU 0 instructions: 308000000 cycles: 223502502 heartbeat IPC: 0.727857 cumulative IPC: 0.814217 (Simulation time: 0 hr 10 min 16 sec) 
Heartbeat CPU 0 instructions: 309000002 cycles: 224836148 heartbeat IPC: 0.749826 cumulative IPC: 0.813576 (Simulation time: 0 hr 10 min 18 sec) 
*** Reached end of trace for Core: 0 Repeating trace: ../ChampSim_CRC2/trace/bzip2_10M.trace.gz
Heartbeat CPU 0 instructions: 310000001 cycles: 226407685 heartbeat IPC: 0.636319 cumulative IPC: 0.811521 (Simulation time: 0 hr 10 min 19 sec) 
Heartbeat CPU 0 instructions: 311000002 cycles: 227801020 heartbeat IPC: 0.717703 cumulative IPC: 0.810567 (Simulation time: 0 hr 10 min 21 sec) 
Heartbeat CPU 0 instructions: 312000000 cycles: 229279059 heartbeat IPC: 0.676571 cumulative IPC: 0.809136 (Simulation time: 0 hr 10 min 23 sec) 
Heartbeat CPU 0 instructions: 313000002 cycles: 230755450 heartbeat IPC: 0.677329 cumulative IPC: 0.807745 (Simulation time: 0 hr 10 min 25 sec) 
Heartbeat CPU 0 instructions: 314000002 cycles: 231862750 heartbeat IPC: 0.903098 cumulative IPC: 0.808494 (Simulation time: 0 hr 10 min 27 sec) 
Heartbeat CPU 0 instructions: 315000000 cycles: 232743522 heartbeat IPC: 1.13537 cumulative IPC: 0.810523 (Simulation time: 0 hr 10 min 29 sec) 
Heartbeat CPU 0 instructions: 316000000 cycles: 233656061 heartbeat IPC: 1.09584 cumulative IPC: 0.812346 (Simulation time: 0 hr 10 min 31 sec) 
Heartbeat CPU 0 instructions: 317000000 cycles: 234450024 heartbeat IPC: 1.2595 cumulative IPC: 0.814819 (Simulation time: 0 hr 10 min 33 sec) 
Heartbeat CPU 0 instructions: 318000000 cycles: 235824620 heartbeat IPC: 0.727486 cumulative IPC: 0.813991 (Simulation time: 0 hr 10 min 35 sec) 
Heartbeat CPU 0 instructions: 319000002 cycles: 237158630 heartbeat IPC: 0.749621 cumulative IPC: 0.813404 (Simulation time: 0 hr 10 min 37 sec) 
*** Reached end of trace for Core: 0 Repeating trace: ../ChampSim_CRC2/trace/bzip2_10M.trace.gz
Heartbeat CPU 0 instructions: 320000000 cycles: 238731705 heartbeat IPC: 0.635696 cumulative IPC: 0.811513 (Simulation time: 0 hr 10 min 39 sec) 
Heartbeat CPU 0 instructions: 321000002 cycles: 240126146 heartbeat IPC: 0.717135 cumulative IPC: 0.810631 (Simulation time: 0 hr 10 min 41 sec) 
Heartbeat CPU 0 instructions: 322000001 cycles: 241605166 heartbeat IPC: 0.676123 cumulative IPC: 0.809312 (Simulation time: 0 hr 10 min 43 sec) 
Heartbeat CPU 0 instructions: 323000002 cycles: 243080819 heartbeat IPC: 0.677667 cumulative IPC: 0.808036 (Simulation time: 0 hr 10 min 45 sec) 
Heartbeat CPU 0 instructions: 324000000 cycles: 244188299 heartbeat IPC: 0.902949 cumulative IPC: 0.808721 (Simulation time: 0 hr 10 min 47 sec) 
Heartbeat CPU 0 instructions: 325000002 cycles: 245069371 heartbeat IPC: 1.13498 cumulative IPC: 0.810585 (Simulation time: 0 hr 10 min 49 sec) 
Heartbeat CPU 0 instructions: 326000002 cycles: 245981245 heartbeat IPC: 1.09664 cumulative IPC: 0.812267 (Simulation time: 0 hr 10 min 51 sec) 
Heartbeat CPU 0 instructions: 327000000 cycles: 246773953 heartbeat IPC: 1.2615 cumulative IPC: 0.814551 (Simulation time: 0 hr 10 min 53 sec) 
Heartbeat CPU 0 instructions: 328000000 cycles: 248147849 heartbeat IPC: 0.727857 cumulative IPC: 0.813793 (Simulation time: 0 hr 10 min 55 sec) 
Heartbeat CPU 0 instructions: 329000002 cycles: 249481495 heartbeat IPC: 0.749826 cumulative IPC: 0.813256 (Simulation time: 0 hr 10 min 57 sec) 
*** Reached end of trace for Core: 0 Repeating trace: ../ChampSim_CRC2/trace/bzip2_10M.trace.gz
Heartbeat CPU 0 instructions: 330000001 cycles: 251053032 heartbeat IPC: 0.636319 cumulative IPC: 0.81152 (Simulation time: 0 hr 10 min 59 sec) 
Heartbeat CPU 0 instructions: 331000002 cycles: 252446367 heartbeat IPC: 0.717703 cumulative IPC: 0.810711 (Simulation time: 0 hr 11 min 1 sec) 
Heartbeat CPU 0 instructions: 332000000 cycles: 253924406 heartbeat IPC: 0.676571 cumulative IPC: 0.809495 (Simulation time: 0 hr 11 min 3 sec) 
Heartbeat CPU 0 instructions: 333000002 cycles: 255400844 heartbeat IPC: 0.677307 cumulative IPC: 0.808309 (Simulation time: 0 hr 11 min 5 sec) 
Heartbeat CPU 0 instructions: 334000002 cycles: 256508085 heartbeat IPC: 0.903146 cumulative IPC: 0.808943 (Simulation time: 0 hr 11 min 7 sec) 
Heartbeat CPU 0 instructions: 335000000 cycles: 257389256 heartbeat IPC: 1.13485 cumulative IPC: 0.810667 (Simulation time: 0 hr 11 min 9 sec) 
Heartbeat CPU 0 instructions: 336000000 cycles: 258301795 heartbeat IPC: 1.09584 cumulative IPC: 0.812222 (Simulation time: 0 hr 11 min 11 sec) 
Heartbeat CPU 0 instructions: 337000000 cycles: 259095758 heartbeat IPC: 1.2595 cumulative IPC: 0.814332 (Simulation time: 0 hr 11 min 13 sec) 
Heartbeat CPU 0 instructions: 338000000 cycles: 260470354 heartbeat IPC: 0.727486 cumulative IPC: 0.813629 (Simulation time: 0 hr 11 min 15 sec) 
Heartbeat CPU 0 instructions: 339000002 cycles: 261804364 heartbeat IPC: 0.749621 cumulative IPC: 0.813129 (Simulation time: 0 hr 11 min 17 sec) 
*** Reached end of trace for Core: 0 Repeating trace: ../ChampSim_CRC2/trace/bzip2_10M.trace.gz
Heartbeat CPU 0 instructions: 340000000 cycles: 263377439 heartbeat IPC: 0.635696 cumulative IPC: 0.811511 (Simulation time: 0 hr 11 min 19 sec) 
Heartbeat CPU 0 instructions: 341000002 cycles: 264771880 heartbeat IPC: 0.717135 cumulative IPC: 0.810754 (Simulation time: 0 hr 11 min 21 sec) 
Heartbeat CPU 0 instructions: 342000001 cycles: 266250900 heartbeat IPC: 0.676123 cumulative IPC: 0.809619 (Simulation time: 0 hr 11 min 23 sec) 
Heartbeat CPU 0 instructions: 343000002 cycles: 267727073 heartbeat IPC: 0.677428 cumulative IPC: 0.808516 (Simulation time: 0 hr 11 min 25 sec) 
Heartbeat CPU 0 instructions: 344000000 cycles: 268834491 heartbeat IPC: 0.903 cumulative IPC: 0.809104 (Simulation time: 0 hr 11 min 27 sec) 
Heartbeat CPU 0 instructions: 345000002 cycles: 269715346 heartbeat IPC: 1.13526 cumulative IPC: 0.81071 (Simulation time: 0 hr 11 min 29 sec) 
Heartbeat CPU 0 instructions: 346000002 cycles: 270627220 heartbeat IPC: 1.09664 cumulative IPC: 0.81216 (Simulation time: 0 hr 11 min 31 sec) 
Heartbeat CPU 0 instructions: 347000000 cycles: 271419928 heartbeat IPC: 1.2615 cumulative IPC: 0.814133 (Simulation time: 0 hr 11 min 33 sec) 
Heartbeat CPU 0 instructions: 348000000 cycles: 272793824 heartbeat IPC: 0.727857 cumulative IPC: 0.813482 (Simulation time: 0 hr 11 min 35 sec) 
Heartbeat CPU 0 instructions: 349000002 cycles: 274127470 heartbeat IPC: 0.749826 cumulative IPC: 0.813018 (Simulation time: 0 hr 11 min 37 sec) 
*** Reached end of trace for Core: 0 Repeating trace: ../ChampSim_CRC2/trace/bzip2_10M.trace.gz
Heartbeat CPU 0 instructions: 350000001 cycles: 275699007 heartbeat IPC: 0.636319 cumulative IPC: 0.811516 (Simulation time: 0 hr 11 min 39 sec) 
Heartbeat CPU 0 instructions: 351000002 cycles: 277092342 heartbeat IPC: 0.717703 cumulative IPC: 0.810814 (Simulation time: 0 hr 11 min 41 sec) 
Heartbeat CPU 0 instructions: 352000000 cycles: 278570381 heartbeat IPC: 0.676571 cumulative IPC: 0.809757 (Simulation time: 0 hr 11 min 42 sec) 
Heartbeat CPU 0 instructions: 353000002 cycles: 280046819 heartbeat IPC: 0.677307 cumulative IPC: 0.808724 (Simulation time: 0 hr 11 min 44 sec) 
Heartbeat CPU 0 instructions: 354000002 cycles: 281154038 heartbeat IPC: 0.903164 cumulative IPC: 0.809273 (Simulation time: 0 hr 11 min 46 sec) 
Heartbeat CPU 0 instructions: 355000000 cycles: 282034888 heartbeat IPC: 1.13526 cumulative IPC: 0.810775 (Simulation time: 0 hr 11 min 48 sec) 
Heartbeat CPU 0 instructions: 356000000 cycles: 282947427 heartbeat IPC: 1.09584 cumulative IPC: 0.812129 (Simulation time: 0 hr 11 min 50 sec) 
Heartbeat CPU 0 instructions: 357000000 cycles: 283741390 heartbeat IPC: 1.2595 cumulative IPC: 0.813971 (Simulation time: 0 hr 11 min 52 sec) 
Heartbeat CPU 0 instructions: 358000000 cycles: 285115986 heartbeat IPC: 0.727486 cumulative IPC: 0.813359 (Simulation time: 0 hr 11 min 54 sec) 
Heartbeat CPU 0 instructions: 359000002 cycles: 286449996 heartbeat IPC: 0.749621 cumulative IPC: 0.812924 (Simulation time: 0 hr 11 min 56 sec) 
*** Reached end of trace for Core: 0 Repeating trace: ../ChampSim_CRC2/trace/bzip2_10M.trace.gz
Heartbeat CPU 0 instructions: 360000000 cycles: 288023071 heartbeat IPC: 0.635696 cumulative IPC: 0.81151 (Simulation time: 0 hr 11 min 58 sec) 
Heartbeat CPU 0 instructions: 361000002 cycles: 289417512 heartbeat IPC: 0.717135 cumulative IPC: 0.810847 (Simulation time: 0 hr 12 min 0 sec) 
Heartbeat CPU 0 instructions: 362000001 cycles: 290896532 heartbeat IPC: 0.676123 cumulative IPC: 0.809851 (Simulation time: 0 hr 12 min 2 sec) 
Heartbeat CPU 0 instructions: 363000002 cycles: 292372220 heartbeat IPC: 0.677651 cumulative IPC: 0.808883 (Simulation time: 0 hr 12 min 4 sec) 
Heartbeat CPU 0 instructions: 364000000 cycles: 293479705 heartbeat IPC: 0.902945 cumulative IPC: 0.809397 (Simulation time: 0 hr 12 min 6 sec) 
Heartbeat CPU 0 instructions: 365000002 cycles: 294360777 heartbeat IPC: 1.13498 cumulative IPC: 0.810807 (Simulation time: 0 hr 12 min 8 sec) 
Heartbeat CPU 0 instructions: 366000002 cycles: 295272651 heartbeat IPC: 1.09664 cumulative IPC: 0.812082 (Simulation time: 0 hr 12 min 10 sec) 
Heartbeat CPU 0 instructions: 367000000 cycles: 296065359 heartbeat IPC: 1.2615 cumulative IPC: 0.813818 (Simulation time: 0 hr 12 min 12 sec) 
Heartbeat CPU 0 instructions: 368000000 cycles: 297439255 heartbeat IPC: 0.727857 cumulative IPC: 0.813246 (Simulation time: 0 hr 12 min 14 sec) 
Heartbeat CPU 0 instructions: 369000002 cycles: 298772901 heartbeat IPC: 0.749826 cumulative IPC: 0.81284 (Simulation time: 0 hr 12 min 16 sec) 
*** Reached end of trace for Core: 0 Repeating trace: ../ChampSim_CRC2/trace/bzip2_10M.trace.gz
Heartbeat CPU 0 instructions: 370000001 cycles: 300344438 heartbeat IPC: 0.636319 cumulative IPC: 0.811515 (Simulation time: 0 hr 12 min 18 sec) 
Heartbeat CPU 0 instructions: 371000002 cycles: 301737773 heartbeat IPC: 0.717703 cumulative IPC: 0.810896 (Simulation time: 0 hr 12 min 20 sec) 
Heartbeat CPU 0 instructions: 372000000 cycles: 303215812 heartbeat IPC: 0.676571 cumulative IPC: 0.809961 (Simulation time: 0 hr 12 min 22 sec) 
Heartbeat CPU 0 instructions: 373000002 cycles: 304692250 heartbeat IPC: 0.677307 cumulative IPC: 0.809045 (Simulation time: 0 hr 12 min 24 sec) 
Heartbeat CPU 0 instructions: 374000002 cycles: 305799406 heartbeat IPC: 0.903215 cumulative IPC: 0.80953 (Simulation time: 0 hr 12 min 26 sec) 
Heartbeat CPU 0 instructions: 375000000 cycles: 306680612 heartbeat IPC: 1.13481 cumulative IPC: 0.810858 (Simulation time: 0 hr 12 min 28 sec) 
Heartbeat CPU 0 instructions: 376000000 cycles: 307593151 heartbeat IPC: 1.09584 cumulative IPC: 0.812058 (Simulation time: 0 hr 12 min 30 sec) 
Heartbeat CPU 0 instructions: 377000000 cycles: 308387114 heartbeat IPC: 1.2595 cumulative IPC: 0.813691 (Simulation time: 0 hr 12 min 32 sec) 
Heartbeat CPU 0 instructions: 378000000 cycles: 309761710 heartbeat IPC: 0.727486 cumulative IPC: 0.81315 (Simulation time: 0 hr 12 min 34 sec) 
Heartbeat CPU 0 instructions: 379000002 cycles: 311095720 heartbeat IPC: 0.749621 cumulative IPC: 0.812765 (Simulation time: 0 hr 12 min 36 sec) 
*** Reached end of trace for Core: 0 Repeating trace: ../ChampSim_CRC2/trace/bzip2_10M.trace.gz
Heartbeat CPU 0 instructions: 380000000 cycles: 312668795 heartbeat IPC: 0.635696 cumulative IPC: 0.811509 (Simulation time: 0 hr 12 min 37 sec) 
Heartbeat CPU 0 instructions: 381000002 cycles: 314063236 heartbeat IPC: 0.717135 cumulative IPC: 0.810919 (Simulation time: 0 hr 12 min 39 sec) 
Heartbeat CPU 0 instructions: 382000001 cycles: 315542256 heartbeat IPC: 0.676123 cumulative IPC: 0.810032 (Simulation time: 0 hr 12 min 41 sec) 
Heartbeat CPU 0 instructions: 383000003 cycles: 317018811 heartbeat IPC: 0.677253 cumulative IPC: 0.809165 (Simulation time: 0 hr 12 min 43 sec) 
Heartbeat CPU 0 instructions: 384000000 cycles: 318126065 heartbeat IPC: 0.903132 cumulative IPC: 0.809623 (Simulation time: 0 hr 12 min 45 sec) 
Heartbeat CPU 0 instructions: 385000002 cycles: 319007085 heartbeat IPC: 1.13505 cumulative IPC: 0.81088 (Simulation time: 0 hr 12 min 47 sec) 
Heartbeat CPU 0 instructions: 386000002 cycles: 319918959 heartbeat IPC: 1.09664 cumulative IPC: 0.812017 (Simulation time: 0 hr 12 min 49 sec) 
Heartbeat CPU 0 instructions: 387000000 cycles: 320711777 heartbeat IPC: 1.26132 cumulative IPC: 0.813567 (Simulation time: 0 hr 12 min 51 sec) 
Heartbeat CPU 0 instructions: 388000000 cycles: 322085673 heartbeat IPC: 0.727857 cumulative IPC: 0.813058 (Simulation time: 0 hr 12 min 53 sec) 
Heartbeat CPU 0 instructions: 389000002 cycles: 323419319 heartbeat IPC: 0.749826 cumulative IPC: 0.812695 (Simulation time: 0 hr 12 min 55 sec) 
*** Reached end of trace for Core: 0 Repeating trace: ../ChampSim_CRC2/trace/bzip2_10M.trace.gz
Heartbeat CPU 0 instructions: 390000001 cycles: 324990856 heartbeat IPC: 0.636319 cumulative IPC: 0.811511 (Simulation time: 0 hr 12 min 57 sec) 
Heartbeat CPU 0 instructions: 391000002 cycles: 326384191 heartbeat IPC: 0.717703 cumulative IPC: 0.810956 (Simulation time: 0 hr 12 min 59 sec) 
Heartbeat CPU 0 instructions: 392000000 cycles: 327862230 heartbeat IPC: 0.676571 cumulative IPC: 0.810118 (Simulation time: 0 hr 13 min 1 sec) 
Heartbeat CPU 0 instructions: 393000002 cycles: 329338708 heartbeat IPC: 0.677289 cumulative IPC: 0.809296 (Simulation time: 0 hr 13 min 3 sec) 
Heartbeat CPU 0 instructions: 394000002 cycles: 330446041 heartbeat IPC: 0.903071 cumulative IPC: 0.809729 (Simulation time: 0 hr 13 min 5 sec) 
Heartbeat CPU 0 instructions: 395000000 cycles: 331326699 heartbeat IPC: 1.13551 cumulative IPC: 0.810922 (Simulation time: 0 hr 13 min 7 sec) 
Heartbeat CPU 0 instructions: 396000000 cycles: 332239238 heartbeat IPC: 1.09584 cumulative IPC: 0.812 (Simulation time: 0 hr 13 min 9 sec) 
Heartbeat CPU 0 instructions: 397000000 cycles: 333033201 heartbeat IPC: 1.2595 cumulative IPC: 0.813467 (Simulation time: 0 hr 13 min 11 sec) 
Heartbeat CPU 0 instructions: 398000000 cycles: 334407797 heartbeat IPC: 0.727486 cumulative IPC: 0.812981 (Simulation time: 0 hr 13 min 13 sec) 
Heartbeat CPU 0 instructions: 399000002 cycles: 335741807 heartbeat IPC: 0.749621 cumulative IPC: 0.812636 (Simulation time: 0 hr 13 min 15 sec) 
*** Reached end of trace for Core: 0 Repeating trace: ../ChampSim_CRC2/trace/bzip2_10M.trace.gz
Heartbeat CPU 0 instructions: 400000000 cycles: 337314882 heartbeat IPC: 0.635696 cumulative IPC: 0.811507 (Simulation time: 0 hr 13 min 17 sec) 
Heartbeat CPU 0 instructions: 401000002 cycles: 338709323 heartbeat IPC: 0.717135 cumulative IPC: 0.810976 (Simulation time: 0 hr 13 min 19 sec) 
Heartbeat CPU 0 instructions: 402000001 cycles: 340188343 heartbeat IPC: 0.676123 cumulative IPC: 0.810176 (Simulation time: 0 hr 13 min 21 sec) 
Heartbeat CPU 0 instructions: 403000002 cycles: 341664100 heartbeat IPC: 0.677619 cumulative IPC: 0.809396 (Simulation time: 0 hr 13 min 23 sec) 
Heartbeat CPU 0 instructions: 404000000 cycles: 342771585 heartbeat IPC: 0.902945 cumulative IPC: 0.809807 (Simulation time: 0 hr 13 min 25 sec) 
Heartbeat CPU 0 instructions: 405000002 cycles: 343652087 heartbeat IPC: 1.13572 cumulative IPC: 0.810942 (Simulation time: 0 hr 13 min 27 sec) 
Heartbeat CPU 0 instructions: 406000002 cycles: 344563961 heartbeat IPC: 1.09664 cumulative IPC: 0.811969 (Simulation time: 0 hr 13 min 29 sec) 
Heartbeat CPU 0 instructions: 407000000 cycles: 345356669 heartbeat IPC: 1.2615 cumulative IPC: 0.81337 (Simulation time: 0 hr 13 min 31 sec) 
Heartbeat CPU 0 instructions: 408000000 cycles: 346730565 heartbeat IPC: 0.727857 cumulative IPC: 0.81291 (Simulation time: 0 hr 13 min 33 sec) 
Heartbeat CPU 0 instructions: 409000002 cycles: 348064211 heartbeat IPC: 0.749826 cumulative IPC: 0.812583 (Simulation time: 0 hr 13 min 35 sec) 
*** Reached end of trace for Core: 0 Repeating trace: ../ChampSim_CRC2/trace/bzip2_10M.trace.gz
Heartbeat CPU 0 instructions: 410000001 cycles: 349635748 heartbeat IPC: 0.636319 cumulative IPC: 0.811513 (Simulation time: 0 hr 13 min 37 sec) 
Heartbeat CPU 0 instructions: 411000002 cycles: 351029083 heartbeat IPC: 0.717703 cumulative IPC: 0.81101 (Simulation time: 0 hr 13 min 38 sec) 
Heartbeat CPU 0 instructions: 412000000 cycles: 352507122 heartbeat IPC: 0.676571 cumulative IPC: 0.810251 (Simulation time: 0 hr 13 min 40 sec) 
Heartbeat CPU 0 instructions: 413000002 cycles: 353983594 heartbeat IPC: 0.677292 cumulative IPC: 0.809505 (Simulation time: 0 hr 13 min 42 sec) 
Heartbeat CPU 0 instructions: 414000002 cycles: 355090916 heartbeat IPC: 0.90308 cumulative IPC: 0.809897 (Simulation time: 0 hr 13 min 44 sec) 
Heartbeat CPU 0 instructions: 415000000 cycles: 355972048 heartbeat IPC: 1.1349 cumulative IPC: 0.810977 (Simulation time: 0 hr 13 min 46 sec) 
Heartbeat CPU 0 instructions: 416000000 cycles: 356884587 heartbeat IPC: 1.09584 cumulative IPC: 0.811954 (Simulation time: 0 hr 13 min 49 sec) 
Heartbeat CPU 0 instructions: 417000000 cycles: 357678440 heartbeat IPC: 1.25968 cumulative IPC: 0.813286 (Simulation time: 0 hr 13 min 50 sec) 
Heartbeat CPU 0 instructions: 418000000 cycles: 359053036 heartbeat IPC: 0.727486 cumulative IPC: 0.812847 (Simulation time: 0 hr 13 min 52 sec) 
Heartbeat CPU 0 instructions: 419000002 cycles: 360387046 heartbeat IPC: 0.749621 cumulative IPC: 0.812534 (Simulation time: 0 hr 13 min 54 sec) 
*** Reached end of trace for Core: 0 Repeating trace: ../ChampSim_CRC2/trace/bzip2_10M.trace.gz
Heartbeat CPU 0 instructions: 420000000 cycles: 361960121 heartbeat IPC: 0.635696 cumulative IPC: 0.811508 (Simulation time: 0 hr 13 min 56 sec) 
Heartbeat CPU 0 instructions: 421000002 cycles: 363354562 heartbeat IPC: 0.717135 cumulative IPC: 0.811025 (Simulation time: 0 hr 13 min 58 sec) 
Heartbeat CPU 0 instructions: 422000001 cycles: 364833582 heartbeat IPC: 0.676123 cumulative IPC: 0.810296 (Simulation time: 0 hr 14 min 0 sec) 
Heartbeat CPU 0 instructions: 423000002 cycles: 366309569 heartbeat IPC: 0.677513 cumulative IPC: 0.809585 (Simulation time: 0 hr 14 min 2 sec) 
Heartbeat CPU 0 instructions: 424000000 cycles: 367416992 heartbeat IPC: 0.902996 cumulative IPC: 0.809959 (Simulation time: 0 hr 14 min 4 sec) 
Heartbeat CPU 0 instructions: 425000002 cycles: 368298164 heartbeat IPC: 1.13485 cumulative IPC: 0.810991 (Simulation time: 0 hr 14 min 6 sec) 
Heartbeat CPU 0 instructions: 426000002 cycles: 369210038 heartbeat IPC: 1.09664 cumulative IPC: 0.811927 (Simulation time: 0 hr 14 min 8 sec) 
Heartbeat CPU 0 instructions: 427000000 cycles: 370002746 heartbeat IPC: 1.2615 cumulative IPC: 0.813203 (Simulation time: 0 hr 14 min 10 sec) 
Heartbeat CPU 0 instructions: 428000000 cycles: 371376642 heartbeat IPC: 0.727857 cumulative IPC: 0.812785 (Simulation time: 0 hr 14 min 12 sec) 
Heartbeat CPU 0 instructions: 429000002 cycles: 372710288 heartbeat IPC: 0.749826 cumulative IPC: 0.812487 (Simulation time: 0 hr 14 min 14 sec) 
*** Reached end of trace for Core: 0 Repeating trace: ../ChampSim_CRC2/trace/bzip2_10M.trace.gz
Heartbeat CPU 0 instructions: 430000001 cycles: 374281825 heartbeat IPC: 0.636319 cumulative IPC: 0.811511 (Simulation time: 0 hr 14 min 16 sec) 
Heartbeat CPU 0 instructions: 431000002 cycles: 375675160 heartbeat IPC: 0.717703 cumulative IPC: 0.811052 (Simulation time: 0 hr 14 min 18 sec) 
Heartbeat CPU 0 instructions: 432000000 cycles: 377153199 heartbeat IPC: 0.676571 cumulative IPC: 0.810357 (Simulation time: 0 hr 14 min 20 sec) 
Heartbeat CPU 0 instructions: 433000002 cycles: 378629590 heartbeat IPC: 0.677329 cumulative IPC: 0.809675 (Simulation time: 0 hr 14 min 22 sec) 
Heartbeat CPU 0 instructions: 434000002 cycles: 379736925 heartbeat IPC: 0.903069 cumulative IPC: 0.810033 (Simulation time: 0 hr 14 min 24 sec) 
Heartbeat CPU 0 instructions: 435000000 cycles: 380617695 heartbeat IPC: 1.13537 cumulative IPC: 0.811022 (Simulation time: 0 hr 14 min 26 sec) 
Heartbeat CPU 0 instructions: 436000000 cycles: 381530234 heartbeat IPC: 1.09584 cumulative IPC: 0.811916 (Simulation time: 0 hr 14 min 28 sec) 
Heartbeat CPU 0 instructions: 437000000 cycles: 382324197 heartbeat IPC: 1.2595 cumulative IPC: 0.813135 (Simulation time: 0 hr 14 min 30 sec) 
Heartbeat CPU 0 instructions: 438000000 cycles: 383698793 heartbeat IPC: 0.727486 cumulative IPC: 0.812733 (Simulation time: 0 hr 14 min 32 sec) 
Heartbeat CPU 0 instructions: 439000002 cycles: 385032803 heartbeat IPC: 0.749621 cumulative IPC: 0.812447 (Simulation time: 0 hr 14 min 34 sec) 
*** Reached end of trace for Core: 0 Repeating trace: ../ChampSim_CRC2/trace/bzip2_10M.trace.gz
Heartbeat CPU 0 instructions: 440000000 cycles: 386605878 heartbeat IPC: 0.635696 cumulative IPC: 0.811507 (Simulation time: 0 hr 14 min 36 sec) 
Heartbeat CPU 0 instructions: 441000002 cycles: 388000319 heartbeat IPC: 0.717135 cumulative IPC: 0.811064 (Simulation time: 0 hr 14 min 38 sec) 
Heartbeat CPU 0 instructions: 442000001 cycles: 389479339 heartbeat IPC: 0.676123 cumulative IPC: 0.810396 (Simulation time: 0 hr 14 min 40 sec) 
Heartbeat CPU 0 instructions: 443000002 cycles: 390954992 heartbeat IPC: 0.677667 cumulative IPC: 0.809743 (Simulation time: 0 hr 14 min 42 sec) 
Heartbeat CPU 0 instructions: 444000000 cycles: 392062470 heartbeat IPC: 0.902951 cumulative IPC: 0.810086 (Simulation time: 0 hr 14 min 43 sec) 
Heartbeat CPU 0 instructions: 445000002 cycles: 392943546 heartbeat IPC: 1.13498 cumulative IPC: 0.811033 (Simulation time: 0 hr 14 min 46 sec) 
Heartbeat CPU 0 instructions: 446000002 cycles: 393855420 heartbeat IPC: 1.09664 cumulative IPC: 0.811893 (Simulation time: 0 hr 14 min 48 sec) 
Heartbeat CPU 0 instructions: 447000000 cycles: 394648128 heartbeat IPC: 1.2615 cumulative IPC: 0.813066 (Simulation time: 0 hr 14 min 50 sec) 
Heartbeat CPU 0 instructions: 448000000 cycles: 396022024 heartbeat IPC: 0.727857 cumulative IPC: 0.812682 (Simulation time: 0 hr 14 min 52 sec) 
Heartbeat CPU 0 instructions: 449000002 cycles: 397355670 heartbeat IPC: 0.749826 cumulative IPC: 0.812409 (Simulation time: 0 hr 14 min 54 sec) 
*** Reached end of trace for Core: 0 Repeating trace: ../ChampSim_CRC2/trace/bzip2_10M.trace.gz
Heartbeat CPU 0 instructions: 450000001 cycles: 398927207 heartbeat IPC: 0.636319 cumulative IPC: 0.811511 (Simulation time: 0 hr 14 min 55 sec) 
Heartbeat CPU 0 instructions: 451000002 cycles: 400320542 heartbeat IPC: 0.717703 cumulative IPC: 0.811088 (Simulation time: 0 hr 14 min 57 sec) 
Heartbeat CPU 0 instructions: 452000000 cycles: 401798581 heartbeat IPC: 0.676571 cumulative IPC: 0.810449 (Simulation time: 0 hr 14 min 59 sec) 
Heartbeat CPU 0 instructions: 453000002 cycles: 403275019 heartbeat IPC: 0.677307 cumulative IPC: 0.80982 (Simulation time: 0 hr 15 min 1 sec) 
Heartbeat CPU 0 instructions: 454000002 cycles: 404382234 heartbeat IPC: 0.903167 cumulative IPC: 0.810149 (Simulation time: 0 hr 15 min 3 sec) 
Heartbeat CPU 0 instructions: 455000000 cycles: 405263410 heartbeat IPC: 1.13484 cumulative IPC: 0.811059 (Simulation time: 0 hr 15 min 5 sec) 
Heartbeat CPU 0 instructions: 456000000 cycles: 406175949 heartbeat IPC: 1.09584 cumulative IPC: 0.811884 (Simulation time: 0 hr 15 min 7 sec) 
Heartbeat CPU 0 instructions: 457000000 cycles: 406969912 heartbeat IPC: 1.2595 cumulative IPC: 0.813008 (Simulation time: 0 hr 15 min 9 sec) 
Heartbeat CPU 0 instructions: 458000000 cycles: 408344508 heartbeat IPC: 0.727486 cumulative IPC: 0.812638 (Simulation time: 0 hr 15 min 11 sec) 
Heartbeat CPU 0 instructions: 459000002 cycles: 409678518 heartbeat IPC: 0.749621 cumulative IPC: 0.812374 (Simulation time: 0 hr 15 min 13 sec) 
*** Reached end of trace for Core: 0 Repeating trace: ../ChampSim_CRC2/trace/bzip2_10M.trace.gz
Heartbeat CPU 0 instructions: 460000000 cycles: 411251593 heartbeat IPC: 0.635696 cumulative IPC: 0.811506 (Simulation time: 0 hr 15 min 15 sec) 
Heartbeat CPU 0 instructions: 461000002 cycles: 412646034 heartbeat IPC: 0.717135 cumulative IPC: 0.811097 (Simulation time: 0 hr 15 min 17 sec) 
Heartbeat CPU 0 instructions: 462000001 cycles: 414125054 heartbeat IPC: 0.676123 cumulative IPC: 0.81048 (Simulation time: 0 hr 15 min 19 sec) 
Heartbeat CPU 0 instructions: 463000002 cycles: 415601227 heartbeat IPC: 0.677428 cumulative IPC: 0.809875 (Simulation time: 0 hr 15 min 21 sec) 
Heartbeat CPU 0 instructions: 464000000 cycles: 416708645 heartbeat IPC: 0.903 cumulative IPC: 0.810192 (Simulation time: 0 hr 15 min 23 sec) 
Heartbeat CPU 0 instructions: 465000002 cycles: 417589498 heartbeat IPC: 1.13527 cumulative IPC: 0.811068 (Simulation time: 0 hr 15 min 25 sec) 
Heartbeat CPU 0 instructions: 466000002 cycles: 418501372 heartbeat IPC: 1.09664 cumulative IPC: 0.811863 (Simulation time: 0 hr 15 min 27 sec) 
Heartbeat CPU 0 instructions: 467000000 cycles: 419294080 heartbeat IPC: 1.2615 cumulative IPC: 0.812948 (Simulation time: 0 hr 15 min 29 sec) 
Heartbeat CPU 0 instructions: 468000000 cycles: 420667976 heartbeat IPC: 0.727857 cumulative IPC: 0.812594 (Simulation time: 0 hr 15 min 31 sec) 
Heartbeat CPU 0 instructions: 469000002 cycles: 422001622 heartbeat IPC: 0.749826 cumulative IPC: 0.812341 (Simulation time: 0 hr 15 min 33 sec) 
*** Reached end of trace for Core: 0 Repeating trace: ../ChampSim_CRC2/trace/bzip2_10M.trace.gz
Heartbeat CPU 0 instructions: 470000001 cycles: 423573159 heartbeat IPC: 0.636319 cumulative IPC: 0.811509 (Simulation time: 0 hr 15 min 35 sec) 
Heartbeat CPU 0 instructions: 471000002 cycles: 424966494 heartbeat IPC: 0.717703 cumulative IPC: 0.811118 (Simulation time: 0 hr 15 min 37 sec) 
Heartbeat CPU 0 instructions: 472000000 cycles: 426444533 heartbeat IPC: 0.676571 cumulative IPC: 0.810526 (Simulation time: 0 hr 15 min 39 sec) 
Heartbeat CPU 0 instructions: 473000002 cycles: 427920971 heartbeat IPC: 0.677307 cumulative IPC: 0.809942 (Simulation time: 0 hr 15 min 41 sec) 
Heartbeat CPU 0 instructions: 474000002 cycles: 429028190 heartbeat IPC: 0.903164 cumulative IPC: 0.810247 (Simulation time: 0 hr 15 min 43 sec) 
Heartbeat CPU 0 instructions: 475000000 cycles: 429909031 heartbeat IPC: 1.13528 cumulative IPC: 0.811092 (Simulation time: 0 hr 15 min 45 sec) 
Heartbeat CPU 0 instructions: 476000000 cycles: 430821570 heartbeat IPC: 1.09584 cumulative IPC: 0.811856 (Simulation time: 0 hr 15 min 47 sec) 
Heartbeat CPU 0 instructions: 477000000 cycles: 431615533 heartbeat IPC: 1.2595 cumulative IPC: 0.812899 (Simulation time: 0 hr 15 min 49 sec) 
Heartbeat CPU 0 instructions: 478000000 cycles: 432990129 heartbeat IPC: 0.727486 cumulative IPC: 0.812556 (Simulation time: 0 hr 15 min 51 sec) 
Heartbeat CPU 0 instructions: 479000002 cycles: 434324139 heartbeat IPC: 0.749621 cumulative IPC: 0.812311 (Simulation time: 0 hr 15 min 53 sec) 
*** Reached end of trace for Core: 0 Repeating trace: ../ChampSim_CRC2/trace/bzip2_10M.trace.gz
Heartbeat CPU 0 instructions: 480000000 cycles: 435897214 heartbeat IPC: 0.635696 cumulative IPC: 0.811506 (Simulation time: 0 hr 15 min 55 sec) 
Heartbeat CPU 0 instructions: 481000002 cycles: 437291655 heartbeat IPC: 0.717135 cumulative IPC: 0.811126 (Simulation time: 0 hr 15 min 57 sec) 
Heartbeat CPU 0 instructions: 482000001 cycles: 438770675 heartbeat IPC: 0.676123 cumulative IPC: 0.810552 (Simulation time: 0 hr 15 min 59 sec) 
Heartbeat CPU 0 instructions: 483000002 cycles: 440246363 heartbeat IPC: 0.677651 cumulative IPC: 0.809991 (Simulation time: 0 hr 16 min 1 sec) 
Heartbeat CPU 0 instructions: 484000000 cycles: 441353848 heartbeat IPC: 0.902945 cumulative IPC: 0.810285 (Simulation time: 0 hr 16 min 2 sec) 
Heartbeat CPU 0 instructions: 485000002 cycles: 442234922 heartbeat IPC: 1.13498 cumulative IPC: 0.811099 (Simulation time: 0 hr 16 min 5 sec) 
Heartbeat CPU 0 instructions: 486000002 cycles: 443146796 heartbeat IPC: 1.09664 cumulative IPC: 0.811838 (Simulation time: 0 hr 16 min 7 sec) 
Heartbeat CPU 0 instructions: 487000000 cycles: 443939504 heartbeat IPC: 1.2615 cumulative IPC: 0.812848 (Simulation time: 0 hr 16 min 9 sec) 
Heartbeat CPU 0 instructions: 488000000 cycles: 445313400 heartbeat IPC: 0.727857 cumulative IPC: 0.812518 (Simulation time: 0 hr 16 min 11 sec) 
Heartbeat CPU 0 instructions: 489000002 cycles: 446647046 heartbeat IPC: 0.749826 cumulative IPC: 0.812283 (Simulation time: 0 hr 16 min 12 sec) 
*** Reached end of trace for Core: 0 Repeating trace: ../ChampSim_CRC2/trace/bzip2_10M.trace.gz
Heartbeat CPU 0 instructions: 490000001 cycles: 448218583 heartbeat IPC: 0.636319 cumulative IPC: 0.811509 (Simulation time: 0 hr 16 min 14 sec) 
Heartbeat CPU 0 instructions: 491000002 cycles: 449611918 heartbeat IPC: 0.717703 cumulative IPC: 0.811145 (Simulation time: 0 hr 16 min 16 sec) 
Heartbeat CPU 0 instructions: 492000000 cycles: 451089957 heartbeat IPC: 0.676571 cumulative IPC: 0.810593 (Simulation time: 0 hr 16 min 18 sec) 
Heartbeat CPU 0 instructions: 493000002 cycles: 452566395 heartbeat IPC: 0.677307 cumulative IPC: 0.810049 (Simulation time: 0 hr 16 min 20 sec) 
Heartbeat CPU 0 instructions: 494000002 cycles: 453673551 heartbeat IPC: 0.903215 cumulative IPC: 0.810333 (Simulation time: 0 hr 16 min 22 sec) 
Heartbeat CPU 0 instructions: 495000000 cycles: 454554759 heartbeat IPC: 1.1348 cumulative IPC: 0.811119 (Simulation time: 0 hr 16 min 24 sec) 
Heartbeat CPU 0 instructions: 496000000 cycles: 455467298 heartbeat IPC: 1.09584 cumulative IPC: 0.811832 (Simulation time: 0 hr 16 min 26 sec) 
Heartbeat CPU 0 instructions: 497000000 cycles: 456261261 heartbeat IPC: 1.2595 cumulative IPC: 0.812805 (Simulation time: 0 hr 16 min 28 sec) 
Heartbeat CPU 0 instructions: 498000000 cycles: 457635857 heartbeat IPC: 0.727486 cumulative IPC: 0.812485 (Simulation time: 0 hr 16 min 30 sec) 
Heartbeat CPU 0 instructions: 499000002 cycles: 458969867 heartbeat IPC: 0.749621 cumulative IPC: 0.812257 (Simulation time: 0 hr 16 min 32 sec) 
*** Reached end of trace for Core: 0 Repeating trace: ../ChampSim_CRC2/trace/bzip2_10M.trace.gz
Heartbeat CPU 0 instructions: 500000000 cycles: 460542942 heartbeat IPC: 0.635696 cumulative IPC: 0.811506 (Simulation time: 0 hr 16 min 34 sec) 
Heartbeat CPU 0 instructions: 501000002 cycles: 461937383 heartbeat IPC: 0.717135 cumulative IPC: 0.811151 (Simulation time: 0 hr 16 min 36 sec) 
Heartbeat CPU 0 instructions: 502000001 cycles: 463416403 heartbeat IPC: 0.676123 cumulative IPC: 0.810615 (Simulation time: 0 hr 16 min 38 sec) 
Heartbeat CPU 0 instructions: 503000003 cycles: 464892958 heartbeat IPC: 0.677253 cumulative IPC: 0.810089 (Simulation time: 0 hr 16 min 40 sec) 
Heartbeat CPU 0 instructions: 504000000 cycles: 466000212 heartbeat IPC: 0.903132 cumulative IPC: 0.810363 (Simulation time: 0 hr 16 min 42 sec) 
Heartbeat CPU 0 instructions: 505000002 cycles: 466881227 heartbeat IPC: 1.13506 cumulative IPC: 0.811124 (Simulation time: 0 hr 16 min 44 sec) 
Heartbeat CPU 0 instructions: 506000002 cycles: 467793101 heartbeat IPC: 1.09664 cumulative IPC: 0.811815 (Simulation time: 0 hr 16 min 46 sec) 
Heartbeat CPU 0 instructions: 507000000 cycles: 468585919 heartbeat IPC: 1.26132 cumulative IPC: 0.812758 (Simulation time: 0 hr 16 min 48 sec) 
Heartbeat CPU 0 instructions: 508000000 cycles: 469959815 heartbeat IPC: 0.727857 cumulative IPC: 0.81245 (Simulation time: 0 hr 16 min 50 sec) 
Heartbeat CPU 0 instructions: 509000002 cycles: 471293461 heartbeat IPC: 0.749826 cumulative IPC: 0.812231 (Simulation time: 0 hr 16 min 52 sec) 
*** Reached end of trace for Core: 0 Repeating trace: ../ChampSim_CRC2/trace/bzip2_10M.trace.gz
Heartbeat CPU 0 instructions: 510000001 cycles: 472864998 heartbeat IPC: 0.636319 cumulative IPC: 0.811507 (Simulation time: 0 hr 16 min 54 sec) 
Heartbeat CPU 0 instructions: 511000002 cycles: 474258333 heartbeat IPC: 0.717703 cumulative IPC: 0.811166 (Simulation time: 0 hr 16 min 56 sec) 
Heartbeat CPU 0 instructions: 512000000 cycles: 475736372 heartbeat IPC: 0.676571 cumulative IPC: 0.810649 (Simulation time: 0 hr 16 min 58 sec) 
Heartbeat CPU 0 instructions: 513000002 cycles: 477212850 heartbeat IPC: 0.677289 cumulative IPC: 0.81014 (Simulation time: 0 hr 17 min 0 sec) 
Heartbeat CPU 0 instructions: 514000002 cycles: 478320183 heartbeat IPC: 0.903071 cumulative IPC: 0.810405 (Simulation time: 0 hr 17 min 2 sec) 
Heartbeat CPU 0 instructions: 515000000 cycles: 479200846 heartbeat IPC: 1.13551 cumulative IPC: 0.811143 (Simulation time: 0 hr 17 min 4 sec) 
Heartbeat CPU 0 instructions: 516000000 cycles: 480113385 heartbeat IPC: 1.09584 cumulative IPC: 0.81181 (Simulation time: 0 hr 17 min 6 sec) 
Heartbeat CPU 0 instructions: 517000000 cycles: 480907348 heartbeat IPC: 1.2595 cumulative IPC: 0.812721 (Simulation time: 0 hr 17 min 8 sec) 
Heartbeat CPU 0 instructions: 518000000 cycles: 482281944 heartbeat IPC: 0.727486 cumulative IPC: 0.812422 (Simulation time: 0 hr 17 min 10 sec) 
Heartbeat CPU 0 instructions: 519000002 cycles: 483615954 heartbeat IPC: 0.749621 cumulative IPC: 0.812209 (Simulation time: 0 hr 17 min 11 sec) 
*** Reached end of trace for Core: 0 Repeating trace: ../ChampSim_CRC2/trace/bzip2_10M.trace.gz
Heartbeat CPU 0 instructions: 520000000 cycles: 485189029 heartbeat IPC: 0.635696 cumulative IPC: 0.811505 (Simulation time: 0 hr 17 min 13 sec) 
[...]
Heartbeat CPU 0 instructions: 1079000002 cycles: 1173694905 heartbeat IPC: 0.749621 cumulative IPC: 0.811758 (Simulation time: 0 hr 35 min 36 sec) 
*** Reached end of trace for Core: 0 Repeating trace: ../ChampSim_CRC2/trace/bzip2_10M.trace.gz
Heartbeat CPU 0 instructions: 1080000000 cycles: 1175267980 heartbeat IPC: 0.635696 cumulative IPC: 0.811503 (Simulation time: 0 hr 35 min 38 sec) 
Heartbeat CPU 0 instructions: 1081000002 cycles: 1176662421 heartbeat IPC: 0.717135 cumulative IPC: 0.811381 (Simulation time: 0 hr 35 min 40 sec) 
Heartbeat CPU 0 instructions: 1082000001 cycles: 1178141441 heartbeat IPC: 0.676123 cumulative IPC: 0.811197 (Simulation time: 0 hr 35 min 42 sec) 
Heartbeat CPU 0 instructions: 1083000002 cycles: 1179617129 heartbeat IPC: 0.677651 cumulative IPC: 0.811016 (Simulation time: 0 hr 35 min 44 sec) 
Heartbeat CPU 0 instructions: 1084000000 cycles: 1180724614 heartbeat IPC: 0.902945 cumulative IPC: 0.81111 (Simulation time: 0 hr 35 min 46 sec) 
Heartbeat CPU 0 instructions: 1085000002 cycles: 1181605691 heartbeat IPC: 1.13498 cumulative IPC: 0.811371 (Simulation time: 0 hr 35 min 48 sec) 
Heartbeat CPU 0 instructions: 1086000002 cycles: 1182517565 heartbeat IPC: 1.09664 cumulative IPC: 0.81161 (Simulation time: 0 hr 35 min 50 sec) 
Heartbeat CPU 0 instructions: 1087000000 cycles: 1183310273 heartbeat IPC: 1.2615 cumulative IPC: 0.811936 (Simulation time: 0 hr 35 min 52 sec) 
Heartbeat CPU 0 instructions: 1088000000 cycles: 1184684169 heartbeat IPC: 0.727857 cumulative IPC: 0.811831 (Simulation time: 0 hr 35 min 54 sec) 
Heartbeat CPU 0 instructions: 1089000002 cycles: 1186017815 heartbeat IPC: 0.749826 cumulative IPC: 0.811755 (Simulation time: 0 hr 35 min 56 sec) 
*** Reached end of trace for Core: 0 Repeating trace: ../ChampSim_CRC2/trace/bzip2_10M.trace.gz
Heartbeat CPU 0 instructions: 1090000001 cycles: 1187589352 heartbeat IPC: 0.636319 cumulative IPC: 0.811504 (Simulation time: 0 hr 35 min 58 sec) 
Heartbeat CPU 0 instructions: 1091000002 cycles: 1188982687 heartbeat IPC: 0.717703 cumulative IPC: 0.811385 (Simulation time: 0 hr 36 min 0 sec) 
Heartbeat CPU 0 instructions: 1092000000 cycles: 1190460726 heartbeat IPC: 0.676571 cumulative IPC: 0.811203 (Simulation time: 0 hr 36 min 2 sec) 
Heartbeat CPU 0 instructions: 1093000002 cycles: 1191937164 heartbeat IPC: 0.677307 cumulative IPC: 0.811024 (Simulation time: 0 hr 36 min 4 sec) 
Heartbeat CPU 0 instructions: 1094000002 cycles: 1193044320 heartbeat IPC: 0.903215 cumulative IPC: 0.811116 (Simulation time: 0 hr 36 min 6 sec) 
Heartbeat CPU 0 instructions: 1095000000 cycles: 1193925521 heartbeat IPC: 1.13481 cumulative IPC: 0.811375 (Simulation time: 0 hr 36 min 8 sec) 
Heartbeat CPU 0 instructions: 1096000000 cycles: 1194838060 heartbeat IPC: 1.09584 cumulative IPC: 0.81161 (Simulation time: 0 hr 36 min 10 sec) 
Heartbeat CPU 0 instructions: 1097000000 cycles: 1195632023 heartbeat IPC: 1.2595 cumulative IPC: 0.811932 (Simulation time: 0 hr 36 min 12 sec) 
Heartbeat CPU 0 instructions: 1098000000 cycles: 1197006619 heartbeat IPC: 0.727486 cumulative IPC: 0.811827 (Simulation time: 0 hr 36 min 14 sec) 
Heartbeat CPU 0 instructions: 1099000002 cycles: 1198340629 heartbeat IPC: 0.749621 cumulative IPC: 0.811752 (Simulation time: 0 hr 36 min 16 sec) 
*** Reached end of trace for Core: 0 Repeating trace: ../ChampSim_CRC2/trace/bzip2_10M.trace.gz
Heartbeat CPU 0 instructions: 1100000000 cycles: 1199913704 heartbeat IPC: 0.635696 cumulative IPC: 0.811502 (Simulation time: 0 hr 36 min 18 sec) 
Heartbeat CPU 0 instructions: 1101000002 cycles: 1201308145 heartbeat IPC: 0.717135 cumulative IPC: 0.811384 (Simulation time: 0 hr 36 min 19 sec) 
Heartbeat CPU 0 instructions: 1102000001 cycles: 1202787165 heartbeat IPC: 0.676123 cumulative IPC: 0.811204 (Simulation time: 0 hr 36 min 21 sec) 
Heartbeat CPU 0 instructions: 1103000003 cycles: 1204263720 heartbeat IPC: 0.677253 cumulative IPC: 0.811026 (Simulation time: 0 hr 36 min 23 sec) 
Heartbeat CPU 0 instructions: 1104000000 cycles: 1205370974 heartbeat IPC: 0.903132 cumulative IPC: 0.811118 (Simulation time: 0 hr 36 min 25 sec) 
Heartbeat CPU 0 instructions: 1105000002 cycles: 1206251988 heartbeat IPC: 1.13506 cumulative IPC: 0.811374 (Simulation time: 0 hr 36 min 27 sec) 
Heartbeat CPU 0 instructions: 1106000002 cycles: 1207163862 heartbeat IPC: 1.09664 cumulative IPC: 0.811607 (Simulation time: 0 hr 36 min 29 sec) 
Heartbeat CPU 0 instructions: 1107000000 cycles: 1207956680 heartbeat IPC: 1.26132 cumulative IPC: 0.811926 (Simulation time: 0 hr 36 min 31 sec) 
Heartbeat CPU 0 instructions: 1108000000 cycles: 1209330576 heartbeat IPC: 0.727857 cumulative IPC: 0.811823 (Simulation time: 0 hr 36 min 33 sec) 
Heartbeat CPU 0 instructions: 1109000002 cycles: 1210664222 heartbeat IPC: 0.749826 cumulative IPC: 0.811749 (Simulation time: 0 hr 36 min 35 sec) 
*** Reached end of trace for Core: 0 Repeating trace: ../ChampSim_CRC2/trace/bzip2_10M.trace.gz
Heartbeat CPU 0 instructions: 1110000001 cycles: 1212235759 heartbeat IPC: 0.636319 cumulative IPC: 0.811503 (Simulation time: 0 hr 36 min 37 sec) 
Heartbeat CPU 0 instructions: 1111000002 cycles: 1213629094 heartbeat IPC: 0.717703 cumulative IPC: 0.811387 (Simulation time: 0 hr 36 min 39 sec) 
Heartbeat CPU 0 instructions: 1112000000 cycles: 1215107133 heartbeat IPC: 0.676571 cumulative IPC: 0.811209 (Simulation time: 0 hr 36 min 41 sec) 
Heartbeat CPU 0 instructions: 1113000002 cycles: 1216583611 heartbeat IPC: 0.677289 cumulative IPC: 0.811034 (Simulation time: 0 hr 36 min 43 sec) 
Heartbeat CPU 0 instructions: 1114000002 cycles: 1217690944 heartbeat IPC: 0.903071 cumulative IPC: 0.811124 (Simulation time: 0 hr 36 min 45 sec) 
Heartbeat CPU 0 instructions: 1115000000 cycles: 1218571606 heartbeat IPC: 1.13551 cumulative IPC: 0.811378 (Simulation time: 0 hr 36 min 47 sec) 
Heartbeat CPU 0 instructions: 1116000000 cycles: 1219484145 heartbeat IPC: 1.09584 cumulative IPC: 0.811607 (Simulation time: 0 hr 36 min 49 sec) 
Heartbeat CPU 0 instructions: 1117000000 cycles: 1220278108 heartbeat IPC: 1.2595 cumulative IPC: 0.811922 (Simulation time: 0 hr 36 min 51 sec) 
Heartbeat CPU 0 instructions: 1118000000 cycles: 1221652704 heartbeat IPC: 0.727486 cumulative IPC: 0.81182 (Simulation time: 0 hr 36 min 53 sec) 
Heartbeat CPU 0 instructions: 1119000002 cycles: 1222986714 heartbeat IPC: 0.749621 cumulative IPC: 0.811746 (Simulation time: 0 hr 36 min 55 sec) 
*** Reached end of trace for Core: 0 Repeating trace: ../ChampSim_CRC2/trace/bzip2_10M.trace.gz
Heartbeat CPU 0 instructions: 1120000000 cycles: 1224559789 heartbeat IPC: 0.635696 cumulative IPC: 0.811502 (Simulation time: 0 hr 36 min 57 sec) 
Heartbeat CPU 0 instructions: 1121000002 cycles: 1225954230 heartbeat IPC: 0.717135 cumulative IPC: 0.811386 (Simulation time: 0 hr 36 min 59 sec) 
Heartbeat CPU 0 instructions: 1122000001 cycles: 1227433250 heartbeat IPC: 0.676123 cumulative IPC: 0.81121 (Simulation time: 0 hr 37 min 1 sec) 
Heartbeat CPU 0 instructions: 1123000002 cycles: 1228909007 heartbeat IPC: 0.677619 cumulative IPC: 0.811037 (Simulation time: 0 hr 37 min 3 sec) 
Heartbeat CPU 0 instructions: 1124000000 cycles: 1230016492 heartbeat IPC: 0.902945 cumulative IPC: 0.811126 (Simulation time: 0 hr 37 min 5 sec) 
Heartbeat CPU 0 instructions: 1125000002 cycles: 1230897003 heartbeat IPC: 1.13571 cumulative IPC: 0.811377 (Simulation time: 0 hr 37 min 7 sec) 
Heartbeat CPU 0 instructions: 1126000002 cycles: 1231808877 heartbeat IPC: 1.09664 cumulative IPC: 0.811605 (Simulation time: 0 hr 37 min 9 sec) 
Heartbeat CPU 0 instructions: 1127000000 cycles: 1232601585 heartbeat IPC: 1.2615 cumulative IPC: 0.811917 (Simulation time: 0 hr 37 min 11 sec) 
Heartbeat CPU 0 instructions: 1128000000 cycles: 1233975481 heartbeat IPC: 0.727857 cumulative IPC: 0.811816 (Simulation time: 0 hr 37 min 13 sec) 
Heartbeat CPU 0 instructions: 1129000002 cycles: 1235309127 heartbeat IPC: 0.749826 cumulative IPC: 0.811744 (Simulation time: 0 hr 37 min 15 sec) 
*** Reached end of trace for Core: 0 Repeating trace: ../ChampSim_CRC2/trace/bzip2_10M.trace.gz
Heartbeat CPU 0 instructions: 1130000001 cycles: 1236880664 heartbeat IPC: 0.636319 cumulative IPC: 0.811504 (Simulation time: 0 hr 37 min 17 sec) 
Heartbeat CPU 0 instructions: 1131000002 cycles: 1238273999 heartbeat IPC: 0.717703 cumulative IPC: 0.81139 (Simulation time: 0 hr 37 min 19 sec) 
Heartbeat CPU 0 instructions: 1132000000 cycles: 1239752038 heartbeat IPC: 0.676571 cumulative IPC: 0.811216 (Simulation time: 0 hr 37 min 21 sec) 
Heartbeat CPU 0 instructions: 1133000002 cycles: 1241228510 heartbeat IPC: 0.677292 cumulative IPC: 0.811044 (Simulation time: 0 hr 37 min 23 sec) 
Heartbeat CPU 0 instructions: 1134000002 cycles: 1242335832 heartbeat IPC: 0.90308 cumulative IPC: 0.811133 (Simulation time: 0 hr 37 min 24 sec) 
Heartbeat CPU 0 instructions: 1135000000 cycles: 1243216961 heartbeat IPC: 1.13491 cumulative IPC: 0.81138 (Simulation time: 0 hr 37 min 27 sec) 
Heartbeat CPU 0 instructions: 1136000000 cycles: 1244129500 heartbeat IPC: 1.09584 cumulative IPC: 0.811605 (Simulation time: 0 hr 37 min 29 sec) 
Heartbeat CPU 0 instructions: 1137000000 cycles: 1244923353 heartbeat IPC: 1.25968 cumulative IPC: 0.811914 (Simulation time: 0 hr 37 min 31 sec) 
Heartbeat CPU 0 instructions: 1138000000 cycles: 1246297949 heartbeat IPC: 0.727486 cumulative IPC: 0.811813 (Simulation time: 0 hr 37 min 33 sec) 
Heartbeat CPU 0 instructions: 1139000002 cycles: 1247631959 heartbeat IPC: 0.749621 cumulative IPC: 0.811742 (Simulation time: 0 hr 37 min 34 sec) 
*** Reached end of trace for Core: 0 Repeating trace: ../ChampSim_CRC2/trace/bzip2_10M.trace.gz
Heartbeat CPU 0 instructions: 1140000000 cycles: 1249205034 heartbeat IPC: 0.635696 cumulative IPC: 0.811502 (Simulation time: 0 hr 37 min 36 sec) 
Heartbeat CPU 0 instructions: 1141000002 cycles: 1250599475 heartbeat IPC: 0.717135 cumulative IPC: 0.811389 (Simulation time: 0 hr 37 min 38 sec) 
Heartbeat CPU 0 instructions: 1142000001 cycles: 1252078495 heartbeat IPC: 0.676123 cumulative IPC: 0.811217 (Simulation time: 0 hr 37 min 40 sec) 
Heartbeat CPU 0 instructions: 1143000002 cycles: 1253554482 heartbeat IPC: 0.677513 cumulative IPC: 0.811047 (Simulation time: 0 hr 37 min 42 sec) 
Heartbeat CPU 0 instructions: 1144000000 cycles: 1254661903 heartbeat IPC: 0.902997 cumulative IPC: 0.811134 (Simulation time: 0 hr 37 min 44 sec) 
Heartbeat CPU 0 instructions: 1145000002 cycles: 1255543071 heartbeat IPC: 1.13486 cumulative IPC: 0.811379 (Simulation time: 0 hr 37 min 46 sec) 
Heartbeat CPU 0 instructions: 1146000002 cycles: 1256454945 heartbeat IPC: 1.09664 cumulative IPC: 0.811603 (Simulation time: 0 hr 37 min 48 sec) 
Heartbeat CPU 0 instructions: 1147000000 cycles: 1257247653 heartbeat IPC: 1.2615 cumulative IPC: 0.811908 (Simulation time: 0 hr 37 min 50 sec) 
Heartbeat CPU 0 instructions: 1148000000 cycles: 1258621549 heartbeat IPC: 0.727857 cumulative IPC: 0.811809 (Simulation time: 0 hr 37 min 52 sec) 
Heartbeat CPU 0 instructions: 1149000002 cycles: 1259955195 heartbeat IPC: 0.749826 cumulative IPC: 0.811739 (Simulation time: 0 hr 37 min 54 sec) 
*** Reached end of trace for Core: 0 Repeating trace: ../ChampSim_CRC2/trace/bzip2_10M.trace.gz
Heartbeat CPU 0 instructions: 1150000001 cycles: 1261526732 heartbeat IPC: 0.636319 cumulative IPC: 0.811503 (Simulation time: 0 hr 37 min 56 sec) 
Heartbeat CPU 0 instructions: 1151000002 cycles: 1262920067 heartbeat IPC: 0.717703 cumulative IPC: 0.811392 (Simulation time: 0 hr 37 min 58 sec) 
Heartbeat CPU 0 instructions: 1152000000 cycles: 1264398106 heartbeat IPC: 0.676571 cumulative IPC: 0.811222 (Simulation time: 0 hr 38 min 0 sec) 
Heartbeat CPU 0 instructions: 1153000002 cycles: 1265874497 heartbeat IPC: 0.677329 cumulative IPC: 0.811054 (Simulation time: 0 hr 38 min 2 sec) 
Heartbeat CPU 0 instructions: 1154000002 cycles: 1266981797 heartbeat IPC: 0.903098 cumulative IPC: 0.81114 (Simulation time: 0 hr 38 min 4 sec) 
Heartbeat CPU 0 instructions: 1155000000 cycles: 1267862569 heartbeat IPC: 1.13537 cumulative IPC: 0.811383 (Simulation time: 0 hr 38 min 6 sec) 
Heartbeat CPU 0 instructions: 1156000000 cycles: 1268775108 heartbeat IPC: 1.09584 cumulative IPC: 0.811603 (Simulation time: 0 hr 38 min 8 sec) 
Heartbeat CPU 0 instructions: 1157000000 cycles: 1269569071 heartbeat IPC: 1.2595 cumulative IPC: 0.811905 (Simulation time: 0 hr 38 min 10 sec) 
Heartbeat CPU 0 instructions: 1158000000 cycles: 1270943667 heartbeat IPC: 0.727486 cumulative IPC: 0.811807 (Simulation time: 0 hr 38 min 12 sec) 
Heartbeat CPU 0 instructions: 1159000002 cycles: 1272277677 heartbeat IPC: 0.749621 cumulative IPC: 0.811736 (Simulation time: 0 hr 38 min 14 sec) 
*** Reached end of trace for Core: 0 Repeating trace: ../ChampSim_CRC2/trace/bzip2_10M.trace.gz
Heartbeat CPU 0 instructions: 1160000000 cycles: 1273850752 heartbeat IPC: 0.635696 cumulative IPC: 0.811502 (Simulation time: 0 hr 38 min 16 sec) 
Heartbeat CPU 0 instructions: 1161000002 cycles: 1275245193 heartbeat IPC: 0.717135 cumulative IPC: 0.811391 (Simulation time: 0 hr 38 min 18 sec) 
Heartbeat CPU 0 instructions: 1162000001 cycles: 1276724213 heartbeat IPC: 0.676123 cumulative IPC: 0.811223 (Simulation time: 0 hr 38 min 20 sec) 
Heartbeat CPU 0 instructions: 1163000002 cycles: 1278199866 heartbeat IPC: 0.677667 cumulative IPC: 0.811057 (Simulation time: 0 hr 38 min 22 sec) 
Heartbeat CPU 0 instructions: 1164000000 cycles: 1279307346 heartbeat IPC: 0.902949 cumulative IPC: 0.811142 (Simulation time: 0 hr 38 min 24 sec) 
Heartbeat CPU 0 instructions: 1165000002 cycles: 1280188418 heartbeat IPC: 1.13498 cumulative IPC: 0.811382 (Simulation time: 0 hr 38 min 26 sec) 
Heartbeat CPU 0 instructions: 1166000002 cycles: 1281100292 heartbeat IPC: 1.09664 cumulative IPC: 0.811601 (Simulation time: 0 hr 38 min 28 sec) 
Heartbeat CPU 0 instructions: 1167000000 cycles: 1281893000 heartbeat IPC: 1.2615 cumulative IPC: 0.8119 (Simulation time: 0 hr 38 min 30 sec) 
Heartbeat CPU 0 instructions: 1168000000 cycles: 1283266896 heartbeat IPC: 0.727857 cumulative IPC: 0.811803 (Simulation time: 0 hr 38 min 32 sec) 
Heartbeat CPU 0 instructions: 1169000002 cycles: 1284600542 heartbeat IPC: 0.749826 cumulative IPC: 0.811734 (Simulation time: 0 hr 38 min 34 sec) 
*** Reached end of trace for Core: 0 Repeating trace: ../ChampSim_CRC2/trace/bzip2_10M.trace.gz
Heartbeat CPU 0 instructions: 1170000001 cycles: 1286172079 heartbeat IPC: 0.636319 cumulative IPC: 0.811503 (Simulation time: 0 hr 38 min 36 sec) 
Heartbeat CPU 0 instructions: 1171000002 cycles: 1287565414 heartbeat IPC: 0.717703 cumulative IPC: 0.811394 (Simulation time: 0 hr 38 min 38 sec) 
Heartbeat CPU 0 instructions: 1172000000 cycles: 1289043453 heartbeat IPC: 0.676571 cumulative IPC: 0.811228 (Simulation time: 0 hr 38 min 40 sec) 
Heartbeat CPU 0 instructions: 1173000002 cycles: 1290519891 heartbeat IPC: 0.677307 cumulative IPC: 0.811063 (Simulation time: 0 hr 38 min 42 sec) 
Heartbeat CPU 0 instructions: 1174000002 cycles: 1291627132 heartbeat IPC: 0.903146 cumulative IPC: 0.811148 (Simulation time: 0 hr 38 min 43 sec) 
Heartbeat CPU 0 instructions: 1175000000 cycles: 1292508303 heartbeat IPC: 1.13485 cumulative IPC: 0.811385 (Simulation time: 0 hr 38 min 46 sec) 
Heartbeat CPU 0 instructions: 1176000000 cycles: 1293420842 heartbeat IPC: 1.09584 cumulative IPC: 0.811601 (Simulation time: 0 hr 38 min 48 sec) 
Heartbeat CPU 0 instructions: 1177000000 cycles: 1294214805 heartbeat IPC: 1.2595 cumulative IPC: 0.811897 (Simulation time: 0 hr 38 min 50 sec) 
Heartbeat CPU 0 instructions: 1178000000 cycles: 1295589401 heartbeat IPC: 0.727486 cumulative IPC: 0.8118 (Simulation time: 0 hr 38 min 51 sec) 
Heartbeat CPU 0 instructions: 1179000002 cycles: 1296923411 heartbeat IPC: 0.749621 cumulative IPC: 0.811732 (Simulation time: 0 hr 38 min 53 sec) 
*** Reached end of trace for Core: 0 Repeating trace: ../ChampSim_CRC2/trace/bzip2_10M.trace.gz
Heartbeat CPU 0 instructions: 1180000000 cycles: 1298496486 heartbeat IPC: 0.635696 cumulative IPC: 0.811502 (Simulation time: 0 hr 38 min 55 sec) 
Heartbeat CPU 0 instructions: 1181000002 cycles: 1299890927 heartbeat IPC: 0.717135 cumulative IPC: 0.811393 (Simulation time: 0 hr 38 min 57 sec) 
Heartbeat CPU 0 instructions: 1182000001 cycles: 1301369947 heartbeat IPC: 0.676123 cumulative IPC: 0.811228 (Simulation time: 0 hr 38 min 59 sec) 
Heartbeat CPU 0 instructions: 1183000002 cycles: 1302846120 heartbeat IPC: 0.677428 cumulative IPC: 0.811065 (Simulation time: 0 hr 39 min 1 sec) 
Heartbeat CPU 0 instructions: 1184000000 cycles: 1303953538 heartbeat IPC: 0.903 cumulative IPC: 0.811149 (Simulation time: 0 hr 39 min 3 sec) 
Heartbeat CPU 0 instructions: 1185000002 cycles: 1304834393 heartbeat IPC: 1.13526 cumulative IPC: 0.811384 (Simulation time: 0 hr 39 min 5 sec) 
Heartbeat CPU 0 instructions: 1186000002 cycles: 1305746267 heartbeat IPC: 1.09664 cumulative IPC: 0.811598 (Simulation time: 0 hr 39 min 7 sec) 
Heartbeat CPU 0 instructions: 1187000000 cycles: 1306538975 heartbeat IPC: 1.2615 cumulative IPC: 0.811892 (Simulation time: 0 hr 39 min 9 sec) 
Heartbeat CPU 0 instructions: 1188000000 cycles: 1307912871 heartbeat IPC: 0.727857 cumulative IPC: 0.811797 (Simulation time: 0 hr 39 min 11 sec) 
Heartbeat CPU 0 instructions: 1189000002 cycles: 1309246517 heartbeat IPC: 0.749826 cumulative IPC: 0.811729 (Simulation time: 0 hr 39 min 13 sec) 
*** Reached end of trace for Core: 0 Repeating trace: ../ChampSim_CRC2/trace/bzip2_10M.trace.gz
Heartbeat CPU 0 instructions: 1190000001 cycles: 1310818054 heartbeat IPC: 0.636319 cumulative IPC: 0.811503 (Simulation time: 0 hr 39 min 15 sec) 
Heartbeat CPU 0 instructions: 1191000002 cycles: 1312211389 heartbeat IPC: 0.717703 cumulative IPC: 0.811396 (Simulation time: 0 hr 39 min 17 sec) 
Heartbeat CPU 0 instructions: 1192000000 cycles: 1313689428 heartbeat IPC: 0.676571 cumulative IPC: 0.811233 (Simulation time: 0 hr 39 min 19 sec) 
Heartbeat CPU 0 instructions: 1193000002 cycles: 1315165866 heartbeat IPC: 0.677307 cumulative IPC: 0.811072 (Simulation time: 0 hr 39 min 21 sec) 
Heartbeat CPU 0 instructions: 1194000002 cycles: 1316273085 heartbeat IPC: 0.903164 cumulative IPC: 0.811155 (Simulation time: 0 hr 39 min 23 sec) 
Heartbeat CPU 0 instructions: 1195000000 cycles: 1317153935 heartbeat IPC: 1.13526 cumulative IPC: 0.811388 (Simulation time: 0 hr 39 min 25 sec) 
Heartbeat CPU 0 instructions: 1196000000 cycles: 1318066474 heartbeat IPC: 1.09584 cumulative IPC: 0.811599 (Simulation time: 0 hr 39 min 27 sec) 
Heartbeat CPU 0 instructions: 1197000000 cycles: 1318860437 heartbeat IPC: 1.2595 cumulative IPC: 0.811889 (Simulation time: 0 hr 39 min 29 sec) 
Heartbeat CPU 0 instructions: 1198000000 cycles: 1320235033 heartbeat IPC: 0.727486 cumulative IPC: 0.811794 (Simulation time: 0 hr 39 min 31 sec) 
Heartbeat CPU 0 instructions: 1199000002 cycles: 1321569043 heartbeat IPC: 0.749621 cumulative IPC: 0.811727 (Simulation time: 0 hr 39 min 33 sec) 
*** Reached end of trace for Core: 0 Repeating trace: ../ChampSim_CRC2/trace/bzip2_10M.trace.gz
Heartbeat CPU 0 instructions: 1200000000 cycles: 1323142118 heartbeat IPC: 0.635696 cumulative IPC: 0.811502 (Simulation time: 0 hr 39 min 35 sec) 
Finished CPU 0 instructions: 1000000000 cycles: 1232282335 cummulative IPC: 0.811502 (Simulation time: 0 hr 39 min 35 sec) 

ChampSim completed all CPUs

Region of Interest Statistics

CPU 0 cummulative IPC: 0.811502 instructions: 1000000000 cycles: 1232282335
LLC TOTAL     ACCESS:   10448297  HIT:   10317926  MISS:     130371
LLC LOAD      ACCESS:    6580099  HIT:    6567583  MISS:      12516
LLC RFO       ACCESS:    1674799  HIT:    1605198  MISS:      69601
LLC PREFETCH  ACCESS:          0  HIT:          0  MISS:          0
LLC WRITEBACK ACCESS:    2193399  HIT:    2145145  MISS:      48254
Insertion Distribution: 
	LOAD 16981 0 11119 1539 
	RFO 5669 0 6579 81555 
	PREF 0 0 0 0 
	WRITEBACK 0 0 0 56959 
Total Prefetch Downgrades: 0
