
*** ChampSim Multicore Out-of-Order Simulator ***

Warmup Instructions: 200000000
Simulation Instructions: 1000000000
Configuration: 1
Number of CPUs: 1
LLC sets: 2048
LLC ways: 16
Off-chip DRAM Channels: 1 Width: 64-bit Data Rate: 1600 MT/s

CPU 0 runs ../ChampSim_CRC2/trace/bzip2_10M.trace.gz
Initialize SRRIP state
Heartbeat CPU 0 instructions: 1000002 cycles: 454321 heartbeat IPC: 2.20109 cumulative IPC: 2.20109 (Simulation time: 0 hr 0 min 2 sec) 
Heartbeat CPU 0 instructions: 2000001 cycles: 907396 heartbeat IPC: 2.20714 cumulative IPC: 2.20411 (Simulation time: 0 hr 0 min 4 sec) 
Heartbeat CPU 0 instructions: 3000003 cycles: 1353173 heartbeat IPC: 2.24328 cumulative IPC: 2.21701 (Simulation time: 0 hr 0 min 6 sec) 
Heartbeat CPU 0 instructions: 4000000 cycles: 1808033 heartbeat IPC: 2.19847 cumulative IPC: 2.21235 (Simulation time: 0 hr 0 min 8 sec) 
Heartbeat CPU 0 instructions: 5000000 cycles: 2187382 heartbeat IPC: 2.6361 cumulative IPC: 2.28584 (Simulation time: 0 hr 0 min 10 sec) 
Heartbeat CPU 0 instructions: 6000002 cycles: 2642690 heartbeat IPC: 2.19632 cumulative IPC: 2.27041 (Simulation time: 0 hr 0 min 12 sec) 
Heartbeat CPU 0 instructions: 7000000 cycles: 3183116 heartbeat IPC: 1.85039 cumulative IPC: 2.1991 (Simulation time: 0 hr 0 min 14 sec) 
Heartbeat CPU 0 instructions: 8000000 cycles: 3626048 heartbeat IPC: 2.25768 cumulative IPC: 2.20626 (Simulation time: 0 hr 0 min 16 sec) 
Heartbeat CPU 0 instructions: 9000000 cycles: 4101116 heartbeat IPC: 2.10496 cumulative IPC: 2.19452 (Simulation time: 0 hr 0 min 18 sec) 
*** Reached end of trace for Core: 0 Repeating trace: ../ChampSim_CRC2/trace/bzip2_10M.trace.gz
Heartbeat CPU 0 instructions: 10000000 cycles: 4541434 heartbeat IPC: 2.27109 cumulative IPC: 2.20195 (Simulation time: 0 hr 0 min 20 sec) 
Heartbeat CPU 0 instructions: 11000002 cycles: 4995080 heartbeat IPC: 2.20437 cumulative IPC: 2.20217 (Simulation time: 0 hr 0 min 22 sec) 
Heartbeat CPU 0 instructions: 12000000 cycles: 5448205 heartbeat IPC: 2.20689 cumulative IPC: 2.20256 (Simulation time: 0 hr 0 min 24 sec) 
Heartbeat CPU 0 instructions: 13000002 cycles: 5893864 heartbeat IPC: 2.24387 cumulative IPC: 2.20568 (Simulation time: 0 hr 0 min 26 sec) 
Heartbeat CPU 0 instructions: 14000001 cycles: 6348369 heartbeat IPC: 2.20019 cumulative IPC: 2.20529 (Simulation time: 0 hr 0 min 28 sec) 
Heartbeat CPU 0 instructions: 15000003 cycles: 6727350 heartbeat IPC: 2.63866 cumulative IPC: 2.2297 (Simulation time: 0 hr 0 min 30 sec) 
Heartbeat CPU 0 instructions: 16000000 cycles: 7182395 heartbeat IPC: 2.19758 cumulative IPC: 2.22767 (Simulation time: 0 hr 0 min 32 sec) 
Heartbeat CPU 0 instructions: 17000000 cycles: 7723677 heartbeat IPC: 1.84747 cumulative IPC: 2.20102 (Simulation time: 0 hr 0 min 34 sec) 
Heartbeat CPU 0 instructions: 18000000 cycles: 8170358 heartbeat IPC: 2.23873 cumulative IPC: 2.20309 (Simulation time: 0 hr 0 min 36 sec) 
Heartbeat CPU 0 instructions: 19000000 cycles: 8644813 heartbeat IPC: 2.10768 cumulative IPC: 2.19785 (Simulation time: 0 hr 0 min 38 sec) 
*** Reached end of trace for Core: 0 Repeating trace: ../ChampSim_CRC2/trace/bzip2_10M.trace.gz
Heartbeat CPU 0 instructions: 20000000 cycles: 9085148 heartbeat IPC: 2.271 cumulative IPC: 2.2014 (Simulation time: 0 hr 0 min 40 sec) 
Heartbeat CPU 0 instructions: 21000002 cycles: 9539675 heartbeat IPC: 2.20009 cumulative IPC: 2.20133 (Simulation time: 0 hr 0 min 42 sec) 
Heartbeat CPU 0 instructions: 22000001 cycles: 9992938 heartbeat IPC: 2.20622 cumulative IPC: 2.20155 (Simulation time: 0 hr 0 min 45 sec) 
Heartbeat CPU 0 instructions: 23000003 cycles: 10438849 heartbeat IPC: 2.2426 cumulative IPC: 2.20331 (Simulation time: 0 hr 0 min 47 sec) 
Heartbeat CPU 0 instructions: 24000000 cycles: 10893665 heartbeat IPC: 2.19868 cumulative IPC: 2.20312 (Simulation time: 0 hr 0 min 49 sec) 
Heartbeat CPU 0 instructions: 25000000 cycles: 11273018 heartbeat IPC: 2.63607 cumulative IPC: 2.21768 (Simulation time: 0 hr 0 min 50 sec) 
Heartbeat CPU 0 instructions: 26000002 cycles: 11728354 heartbeat IPC: 2.19618 cumulative IPC: 2.21685 (Simulation time: 0 hr 0 min 52 sec) 
Heartbeat CPU 0 instructions: 27000000 cycles: 12268866 heartbeat IPC: 1.85009 cumulative IPC: 2.20069 (Simulation time: 0 hr 0 min 55 sec) 
Heartbeat CPU 0 instructions: 28000000 cycles: 12711863 heartbeat IPC: 2.25735 cumulative IPC: 2.20267 (Simulation time: 0 hr 0 min 57 sec) 
Heartbeat CPU 0 instructions: 29000000 cycles: 13186939 heartbeat IPC: 2.10493 cumulative IPC: 2.19915 (Simulation time: 0 hr 0 min 59 sec) 
*** Reached end of trace for Core: 0 Repeating trace: ../ChampSim_CRC2/trace/bzip2_10M.trace.gz
Heartbeat CPU 0 instructions: 30000000 cycles: 13627262 heartbeat IPC: 2.27106 cumulative IPC: 2.20147 (Simulation time: 0 hr 1 min 1 sec) 
Heartbeat CPU 0 instructions: 31000002 cycles: 14080914 heartbeat IPC: 2.20434 cumulative IPC: 2.20156 (Simulation time: 0 hr 1 min 3 sec) 
Heartbeat CPU 0 instructions: 32000000 cycles: 14534039 heartbeat IPC: 2.20689 cumulative IPC: 2.20173 (Simulation time: 0 hr 1 min 5 sec) 
Heartbeat CPU 0 instructions: 33000002 cycles: 14979706 heartbeat IPC: 2.24383 cumulative IPC: 2.20298 (Simulation time: 0 hr 1 min 7 sec) 
Heartbeat CPU 0 instructions: 34000001 cycles: 15434195 heartbeat IPC: 2.20027 cumulative IPC: 2.2029 (Simulation time: 0 hr 1 min 9 sec) 
Heartbeat CPU 0 instructions: 35000003 cycles: 15813228 heartbeat IPC: 2.6383 cumulative IPC: 2.21334 (Simulation time: 0 hr 1 min 10 sec) 
Heartbeat CPU 0 instructions: 36000000 cycles: 16268274 heartbeat IPC: 2.19757 cumulative IPC: 2.2129 (Simulation time: 0 hr 1 min 12 sec) 
Heartbeat CPU 0 instructions: 37000000 cycles: 16809558 heartbeat IPC: 1.84746 cumulative IPC: 2.20113 (Simulation time: 0 hr 1 min 15 sec) 
Heartbeat CPU 0 instructions: 38000000 cycles: 17256236 heartbeat IPC: 2.23875 cumulative IPC: 2.2021 (Simulation time: 0 hr 1 min 17 sec) 
Heartbeat CPU 0 instructions: 39000000 cycles: 17730691 heartbeat IPC: 2.10768 cumulative IPC: 2.19958 (Simulation time: 0 hr 1 min 19 sec) 
*** Reached end of trace for Core: 0 Repeating trace: ../ChampSim_CRC2/trace/bzip2_10M.trace.gz
Heartbeat CPU 0 instructions: 40000000 cycles: 18171026 heartbeat IPC: 2.271 cumulative IPC: 2.20131 (Simulation time: 0 hr 1 min 21 sec) 
Heartbeat CPU 0 instructions: 41000002 cycles: 18625556 heartbeat IPC: 2.20008 cumulative IPC: 2.20128 (Simulation time: 0 hr 1 min 23 sec) 
Heartbeat CPU 0 instructions: 42000001 cycles: 19078811 heartbeat IPC: 2.20626 cumulative IPC: 2.2014 (Simulation time: 0 hr 1 min 25 sec) 
Heartbeat CPU 0 instructions: 43000003 cycles: 19524719 heartbeat IPC: 2.24262 cumulative IPC: 2.20234 (Simulation time: 0 hr 1 min 27 sec) 
Heartbeat CPU 0 instructions: 44000000 cycles: 19979523 heartbeat IPC: 2.19874 cumulative IPC: 2.20225 (Simulation time: 0 hr 1 min 29 sec) 
Heartbeat CPU 0 instructions: 45000000 cycles: 20358963 heartbeat IPC: 2.63546 cumulative IPC: 2.21033 (Simulation time: 0 hr 1 min 30 sec) 
Heartbeat CPU 0 instructions: 46000002 cycles: 20814305 heartbeat IPC: 2.19616 cumulative IPC: 2.21002 (Simulation time: 0 hr 1 min 32 sec) 
Heartbeat CPU 0 instructions: 47000000 cycles: 21354817 heartbeat IPC: 1.85009 cumulative IPC: 2.20091 (Simulation time: 0 hr 1 min 35 sec) 
Heartbeat CPU 0 instructions: 48000000 cycles: 21797832 heartbeat IPC: 2.25726 cumulative IPC: 2.20205 (Simulation time: 0 hr 1 min 37 sec) 
Heartbeat CPU 0 instructions: 49000000 cycles: 22272908 heartbeat IPC: 2.10493 cumulative IPC: 2.19998 (Simulation time: 0 hr 1 min 39 sec) 
*** Reached end of trace for Core: 0 Repeating trace: ../ChampSim_CRC2/trace/bzip2_10M.trace.gz
Heartbeat CPU 0 instructions: 50000000 cycles: 22713231 heartbeat IPC: 2.27106 cumulative IPC: 2.20136 (Simulation time: 0 hr 1 min 41 sec) 
Heartbeat CPU 0 instructions: 51000002 cycles: 23166886 heartbeat IPC: 2.20432 cumulative IPC: 2.20142 (Simulation time: 0 hr 1 min 43 sec) 
Heartbeat CPU 0 instructions: 52000000 cycles: 23620014 heartbeat IPC: 2.20688 cumulative IPC: 2.20152 (Simulation time: 0 hr 1 min 45 sec) 
Heartbeat CPU 0 instructions: 53000002 cycles: 24065679 heartbeat IPC: 2.24384 cumulative IPC: 2.20231 (Simulation time: 0 hr 1 min 47 sec) 
Heartbeat CPU 0 instructions: 54000001 cycles: 24520174 heartbeat IPC: 2.20024 cumulative IPC: 2.20227 (Simulation time: 0 hr 1 min 49 sec) 
Heartbeat CPU 0 instructions: 55000003 cycles: 24899224 heartbeat IPC: 2.63818 cumulative IPC: 2.2089 (Simulation time: 0 hr 1 min 51 sec) 
Heartbeat CPU 0 instructions: 56000000 cycles: 25354272 heartbeat IPC: 2.19756 cumulative IPC: 2.2087 (Simulation time: 0 hr 1 min 53 sec) 
Heartbeat CPU 0 instructions: 57000000 cycles: 25895557 heartbeat IPC: 1.84746 cumulative IPC: 2.20115 (Simulation time: 0 hr 1 min 55 sec) 
Heartbeat CPU 0 instructions: 58000000 cycles: 26342236 heartbeat IPC: 2.23874 cumulative IPC: 2.20179 (Simulation time: 0 hr 1 min 57 sec) 
Heartbeat CPU 0 instructions: 59000000 cycles: 26816691 heartbeat IPC: 2.10768 cumulative IPC: 2.20012 (Simulation time: 0 hr 1 min 59 sec) 
*** Reached end of trace for Core: 0 Repeating trace: ../ChampSim_CRC2/trace/bzip2_10M.trace.gz
Heartbeat CPU 0 instructions: 60000000 cycles: 27257026 heartbeat IPC: 2.271 cumulative IPC: 2.20127 (Simulation time: 0 hr 2 min 1 sec) 
Heartbeat CPU 0 instructions: 61000002 cycles: 27711556 heartbeat IPC: 2.20008 cumulative IPC: 2.20125 (Simulation time: 0 hr 2 min 3 sec) 
Heartbeat CPU 0 instructions: 62000001 cycles: 28164811 heartbeat IPC: 2.20626 cumulative IPC: 2.20133 (Simulation time: 0 hr 2 min 5 sec) 
Heartbeat CPU 0 instructions: 63000003 cycles: 28610713 heartbeat IPC: 2.24265 cumulative IPC: 2.20197 (Simulation time: 0 hr 2 min 7 sec) 
Heartbeat CPU 0 instructions: 64000000 cycles: 29065502 heartbeat IPC: 2.19882 cumulative IPC: 2.20192 (Simulation time: 0 hr 2 min 9 sec) 
Heartbeat CPU 0 instructions: 65000000 cycles: 29444922 heartbeat IPC: 2.6356 cumulative IPC: 2.20751 (Simulation time: 0 hr 2 min 11 sec) 
Heartbeat CPU 0 instructions: 66000002 cycles: 29900263 heartbeat IPC: 2.19616 cumulative IPC: 2.20734 (Simulation time: 0 hr 2 min 13 sec) 
Heartbeat CPU 0 instructions: 67000000 cycles: 30440776 heartbeat IPC: 1.85009 cumulative IPC: 2.201 (Simulation time: 0 hr 2 min 15 sec) 
Heartbeat CPU 0 instructions: 68000000 cycles: 30883793 heartbeat IPC: 2.25725 cumulative IPC: 2.2018 (Simulation time: 0 hr 2 min 17 sec) 
Heartbeat CPU 0 instructions: 69000000 cycles: 31358868 heartbeat IPC: 2.10493 cumulative IPC: 2.20033 (Simulation time: 0 hr 2 min 19 sec) 
*** Reached end of trace for Core: 0 Repeating trace: ../ChampSim_CRC2/trace/bzip2_10M.trace.gz
Heartbeat CPU 0 instructions: 70000000 cycles: 31799190 heartbeat IPC: 2.27107 cumulative IPC: 2.20131 (Simulation time: 0 hr 2 min 21 sec) 
Heartbeat CPU 0 instructions: 71000002 cycles: 32252845 heartbeat IPC: 2.20432 cumulative IPC: 2.20136 (Simulation time: 0 hr 2 min 23 sec) 
Heartbeat CPU 0 instructions: 72000000 cycles: 32705973 heartbeat IPC: 2.20688 cumulative IPC: 2.20143 (Simulation time: 0 hr 2 min 25 sec) 
Heartbeat CPU 0 instructions: 73000002 cycles: 33151642 heartbeat IPC: 2.24382 cumulative IPC: 2.202 (Simulation time: 0 hr 2 min 27 sec) 
Heartbeat CPU 0 instructions: 74000001 cycles: 33606135 heartbeat IPC: 2.20025 cumulative IPC: 2.20198 (Simulation time: 0 hr 2 min 29 sec) 
Heartbeat CPU 0 instructions: 75000003 cycles: 33985161 heartbeat IPC: 2.63835 cumulative IPC: 2.20685 (Simulation time: 0 hr 2 min 31 sec) 
Heartbeat CPU 0 instructions: 76000000 cycles: 34440207 heartbeat IPC: 2.19757 cumulative IPC: 2.20672 (Simulation time: 0 hr 2 min 33 sec) 
Heartbeat CPU 0 instructions: 77000000 cycles: 34981492 heartbeat IPC: 1.84746 cumulative IPC: 2.20116 (Simulation time: 0 hr 2 min 35 sec) 
Heartbeat CPU 0 instructions: 78000000 cycles: 35428171 heartbeat IPC: 2.23874 cumulative IPC: 2.20164 (Simulation time: 0 hr 2 min 37 sec) 
Heartbeat CPU 0 instructions: 79000000 cycles: 35902626 heartbeat IPC: 2.10768 cumulative IPC: 2.2004 (Simulation time: 0 hr 2 min 39 sec) 
*** Reached end of trace for Core: 0 Repeating trace: ../ChampSim_CRC2/trace/bzip2_10M.trace.gz
Heartbeat CPU 0 instructions: 80000000 cycles: 36342961 heartbeat IPC: 2.271 cumulative IPC: 2.20125 (Simulation time: 0 hr 2 min 41 sec) 
Heartbeat CPU 0 instructions: 81000002 cycles: 36797492 heartbeat IPC: 2.20007 cumulative IPC: 2.20124 (Simulation time: 0 hr 2 min 43 sec) 
Heartbeat CPU 0 instructions: 82000001 cycles: 37250748 heartbeat IPC: 2.20626 cumulative IPC: 2.2013 (Simulation time: 0 hr 2 min 45 sec) 
Heartbeat CPU 0 instructions: 83000003 cycles: 37696646 heartbeat IPC: 2.24267 cumulative IPC: 2.20179 (Simulation time: 0 hr 2 min 48 sec) 
Heartbeat CPU 0 instructions: 84000000 cycles: 38151448 heartbeat IPC: 2.19875 cumulative IPC: 2.20175 (Simulation time: 0 hr 2 min 50 sec) 
Heartbeat CPU 0 instructions: 85000000 cycles: 38530856 heartbeat IPC: 2.63568 cumulative IPC: 2.20602 (Simulation time: 0 hr 2 min 51 sec) 
Heartbeat CPU 0 instructions: 86000002 cycles: 38986198 heartbeat IPC: 2.19616 cumulative IPC: 2.20591 (Simulation time: 0 hr 2 min 53 sec) 
Heartbeat CPU 0 instructions: 87000000 cycles: 39526710 heartbeat IPC: 1.85009 cumulative IPC: 2.20104 (Simulation time: 0 hr 2 min 55 sec) 
Heartbeat CPU 0 instructions: 88000000 cycles: 39969728 heartbeat IPC: 2.25724 cumulative IPC: 2.20167 (Simulation time: 0 hr 2 min 57 sec) 
Heartbeat CPU 0 instructions: 89000000 cycles: 40444804 heartbeat IPC: 2.10493 cumulative IPC: 2.20053 (Simulation time: 0 hr 3 min 0 sec) 
*** Reached end of trace for Core: 0 Repeating trace: ../ChampSim_CRC2/trace/bzip2_10M.trace.gz
Heartbeat CPU 0 instructions: 90000000 cycles: 40885127 heartbeat IPC: 2.27106 cumulative IPC: 2.20129 (Simulation time: 0 hr 3 min 2 sec) 
Heartbeat CPU 0 instructions: 91000002 cycles: 41338782 heartbeat IPC: 2.20432 cumulative IPC: 2.20132 (Simulation time: 0 hr 3 min 4 sec) 
Heartbeat CPU 0 instructions: 92000000 cycles: 41791910 heartbeat IPC: 2.20688 cumulative IPC: 2.20138 (Simulation time: 0 hr 3 min 6 sec) 
Heartbeat CPU 0 instructions: 93000002 cycles: 42237575 heartbeat IPC: 2.24384 cumulative IPC: 2.20183 (Simulation time: 0 hr 3 min 8 sec) 
Heartbeat CPU 0 instructions: 94000001 cycles: 42692070 heartbeat IPC: 2.20024 cumulative IPC: 2.20181 (Simulation time: 0 hr 3 min 10 sec) 
Heartbeat CPU 0 instructions: 95000003 cycles: 43071104 heartbeat IPC: 2.63829 cumulative IPC: 2.20566 (Simulation time: 0 hr 3 min 11 sec) 
Heartbeat CPU 0 instructions: 96000000 cycles: 43526150 heartbeat IPC: 2.19757 cumulative IPC: 2.20557 (Simulation time: 0 hr 3 min 13 sec) 
Heartbeat CPU 0 instructions: 97000000 cycles: 44067435 heartbeat IPC: 1.84746 cumulative IPC: 2.20117 (Simulation time: 0 hr 3 min 16 sec) 
Heartbeat CPU 0 instructions: 98000000 cycles: 44514114 heartbeat IPC: 2.23874 cumulative IPC: 2.20155 (Simulation time: 0 hr 3 min 18 sec) 
Heartbeat CPU 0 instructions: 99000000 cycles: 44988569 heartbeat IPC: 2.10768 cumulative IPC: 2.20056 (Simulation time: 0 hr 3 min 20 sec) 
*** Reached end of trace for Core: 0 Repeating trace: ../ChampSim_CRC2/trace/bzip2_10M.trace.gz
Heartbeat CPU 0 instructions: 100000000 cycles: 45428904 heartbeat IPC: 2.271 cumulative IPC: 2.20124 (Simulation time: 0 hr 3 min 22 sec) 
Heartbeat CPU 0 instructions: 101000002 cycles: 45883435 heartbeat IPC: 2.20007 cumulative IPC: 2.20123 (Simulation time: 0 hr 3 min 24 sec) 
Heartbeat CPU 0 instructions: 102000001 cycles: 46336691 heartbeat IPC: 2.20626 cumulative IPC: 2.20128 (Simulation time: 0 hr 3 min 26 sec) 
Heartbeat CPU 0 instructions: 103000003 cycles: 46782593 heartbeat IPC: 2.24265 cumulative IPC: 2.20167 (Simulation time: 0 hr 3 min 28 sec) 
Heartbeat CPU 0 instructions: 104000000 cycles: 47237402 heartbeat IPC: 2.19872 cumulative IPC: 2.20165 (Simulation time: 0 hr 3 min 30 sec) 
Heartbeat CPU 0 instructions: 105000000 cycles: 47616790 heartbeat IPC: 2.63582 cumulative IPC: 2.2051 (Simulation time: 0 hr 3 min 32 sec) 
Heartbeat CPU 0 instructions: 106000002 cycles: 48072131 heartbeat IPC: 2.19616 cumulative IPC: 2.20502 (Simulation time: 0 hr 3 min 34 sec) 
Heartbeat CPU 0 instructions: 107000000 cycles: 48612643 heartbeat IPC: 1.85009 cumulative IPC: 2.20107 (Simulation time: 0 hr 3 min 36 sec) 
Heartbeat CPU 0 instructions: 108000000 cycles: 49055661 heartbeat IPC: 2.25724 cumulative IPC: 2.20158 (Simulation time: 0 hr 3 min 38 sec) 
Heartbeat CPU 0 instructions: 109000000 cycles: 49530737 heartbeat IPC: 2.10493 cumulative IPC: 2.20065 (Simulation time: 0 hr 3 min 40 sec) 
*** Reached end of trace for Core: 0 Repeating trace: ../ChampSim_CRC2/trace/bzip2_10M.trace.gz
Heartbeat CPU 0 instructions: 110000000 cycles: 49971060 heartbeat IPC: 2.27106 cumulative IPC: 2.20127 (Simulation time: 0 hr 3 min 42 sec) 
Heartbeat CPU 0 instructions: 111000002 cycles: 50424715 heartbeat IPC: 2.20432 cumulative IPC: 2.2013 (Simulation time: 0 hr 3 min 44 sec) 
Heartbeat CPU 0 instructions: 112000000 cycles: 50877843 heartbeat IPC: 2.20688 cumulative IPC: 2.20135 (Simulation time: 0 hr 3 min 46 sec) 
Heartbeat CPU 0 instructions: 113000002 cycles: 51323513 heartbeat IPC: 2.24382 cumulative IPC: 2.20172 (Simulation time: 0 hr 3 min 48 sec) 
Heartbeat CPU 0 instructions: 114000001 cycles: 51778008 heartbeat IPC: 2.20024 cumulative IPC: 2.20171 (Simulation time: 0 hr 3 min 50 sec) 
Heartbeat CPU 0 instructions: 115000003 cycles: 52157036 heartbeat IPC: 2.63833 cumulative IPC: 2.20488 (Simulation time: 0 hr 3 min 52 sec) 
Heartbeat CPU 0 instructions: 116000000 cycles: 52612083 heartbeat IPC: 2.19757 cumulative IPC: 2.20482 (Simulation time: 0 hr 3 min 54 sec) 
Heartbeat CPU 0 instructions: 117000000 cycles: 53153368 heartbeat IPC: 1.84746 cumulative IPC: 2.20118 (Simulation time: 0 hr 3 min 56 sec) 
Heartbeat CPU 0 instructions: 118000000 cycles: 53600048 heartbeat IPC: 2.23874 cumulative IPC: 2.20149 (Simulation time: 0 hr 3 min 58 sec) 
Heartbeat CPU 0 instructions: 119000000 cycles: 54074503 heartbeat IPC: 2.10768 cumulative IPC: 2.20067 (Simulation time: 0 hr 4 min 0 sec) 
*** Reached end of trace for Core: 0 Repeating trace: ../ChampSim_CRC2/trace/bzip2_10M.trace.gz
Heartbeat CPU 0 instructions: 120000000 cycles: 54514838 heartbeat IPC: 2.271 cumulative IPC: 2.20124 (Simulation time: 0 hr 4 min 2 sec) 
Heartbeat CPU 0 instructions: 121000002 cycles: 54969369 heartbeat IPC: 2.20007 cumulative IPC: 2.20123 (Simulation time: 0 hr 4 min 4 sec) 
Heartbeat CPU 0 instructions: 122000001 cycles: 55422625 heartbeat IPC: 2.20626 cumulative IPC: 2.20127 (Simulation time: 0 hr 4 min 6 sec) 
Heartbeat CPU 0 instructions: 123000003 cycles: 55868525 heartbeat IPC: 2.24266 cumulative IPC: 2.2016 (Simulation time: 0 hr 4 min 8 sec) 
Heartbeat CPU 0 instructions: 124000000 cycles: 56323329 heartbeat IPC: 2.19874 cumulative IPC: 2.20157 (Simulation time: 0 hr 4 min 10 sec) 
Heartbeat CPU 0 instructions: 125000000 cycles: 56702739 heartbeat IPC: 2.63567 cumulative IPC: 2.20448 (Simulation time: 0 hr 4 min 12 sec) 
Heartbeat CPU 0 instructions: 126000002 cycles: 57158080 heartbeat IPC: 2.19616 cumulative IPC: 2.20441 (Simulation time: 0 hr 4 min 14 sec) 
Heartbeat CPU 0 instructions: 127000000 cycles: 57698593 heartbeat IPC: 1.85009 cumulative IPC: 2.20109 (Simulation time: 0 hr 4 min 16 sec) 
Heartbeat CPU 0 instructions: 128000000 cycles: 58141609 heartbeat IPC: 2.25725 cumulative IPC: 2.20152 (Simulation time: 0 hr 4 min 18 sec) 
Heartbeat CPU 0 instructions: 129000000 cycles: 58616685 heartbeat IPC: 2.10493 cumulative IPC: 2.20074 (Simulation time: 0 hr 4 min 20 sec) 
*** Reached end of trace for Core: 0 Repeating trace: ../ChampSim_CRC2/trace/bzip2_10M.trace.gz
Heartbeat CPU 0 instructions: 130000000 cycles: 59057008 heartbeat IPC: 2.27106 cumulative IPC: 2.20126 (Simulation time: 0 hr 4 min 22 sec) 
Heartbeat CPU 0 instructions: 131000002 cycles: 59510663 heartbeat IPC: 2.20432 cumulative IPC: 2.20129 (Simulation time: 0 hr 4 min 24 sec) 
Heartbeat CPU 0 instructions: 132000000 cycles: 59963791 heartbeat IPC: 2.20688 cumulative IPC: 2.20133 (Simulation time: 0 hr 4 min 26 sec) 
Heartbeat CPU 0 instructions: 133000002 cycles: 60409456 heartbeat IPC: 2.24384 cumulative IPC: 2.20164 (Simulation time: 0 hr 4 min 28 sec) 
Heartbeat CPU 0 instructions: 134000001 cycles: 60863947 heartbeat IPC: 2.20026 cumulative IPC: 2.20163 (Simulation time: 0 hr 4 min 30 sec) 
Heartbeat CPU 0 instructions: 135000003 cycles: 61242974 heartbeat IPC: 2.63834 cumulative IPC: 2.20433 (Simulation time: 0 hr 4 min 32 sec) 
Heartbeat CPU 0 instructions: 136000000 cycles: 61698020 heartbeat IPC: 2.19757 cumulative IPC: 2.20428 (Simulation time: 0 hr 4 min 34 sec) 
Heartbeat CPU 0 instructions: 137000000 cycles: 62239305 heartbeat IPC: 1.84746 cumulative IPC: 2.20118 (Simulation time: 0 hr 4 min 37 sec) 
Heartbeat CPU 0 instructions: 138000000 cycles: 62685984 heartbeat IPC: 2.23874 cumulative IPC: 2.20145 (Simulation time: 0 hr 4 min 38 sec) 
Heartbeat CPU 0 instructions: 139000000 cycles: 63160439 heartbeat IPC: 2.10768 cumulative IPC: 2.20074 (Simulation time: 0 hr 4 min 41 sec) 
*** Reached end of trace for Core: 0 Repeating trace: ../ChampSim_CRC2/trace/bzip2_10M.trace.gz
Heartbeat CPU 0 instructions: 140000000 cycles: 63600774 heartbeat IPC: 2.271 cumulative IPC: 2.20123 (Simulation time: 0 hr 4 min 43 sec) 
Heartbeat CPU 0 instructions: 141000002 cycles: 64055305 heartbeat IPC: 2.20007 cumulative IPC: 2.20122 (Simulation time: 0 hr 4 min 45 sec) 
Heartbeat CPU 0 instructions: 142000001 cycles: 64508561 heartbeat IPC: 2.20626 cumulative IPC: 2.20126 (Simulation time: 0 hr 4 min 47 sec) 
Heartbeat CPU 0 instructions: 143000003 cycles: 64954462 heartbeat IPC: 2.24265 cumulative IPC: 2.20154 (Simulation time: 0 hr 4 min 49 sec) 
Heartbeat CPU 0 instructions: 144000000 cycles: 65409266 heartbeat IPC: 2.19874 cumulative IPC: 2.20152 (Simulation time: 0 hr 4 min 51 sec) 
Heartbeat CPU 0 instructions: 145000000 cycles: 65788676 heartbeat IPC: 2.63567 cumulative IPC: 2.20403 (Simulation time: 0 hr 4 min 52 sec) 
Heartbeat CPU 0 instructions: 146000002 cycles: 66244018 heartbeat IPC: 2.19616 cumulative IPC: 2.20397 (Simulation time: 0 hr 4 min 54 sec) 
Heartbeat CPU 0 instructions: 147000000 cycles: 66784530 heartbeat IPC: 1.85009 cumulative IPC: 2.20111 (Simulation time: 0 hr 4 min 57 sec) 
Heartbeat CPU 0 instructions: 148000000 cycles: 67227547 heartbeat IPC: 2.25725 cumulative IPC: 2.20148 (Simulation time: 0 hr 4 min 59 sec) 
Heartbeat CPU 0 instructions: 149000000 cycles: 67702623 heartbeat IPC: 2.10493 cumulative IPC: 2.2008 (Simulation time: 0 hr 5 min 1 sec) 
*** Reached end of trace for Core: 0 Repeating trace: ../ChampSim_CRC2/trace/bzip2_10M.trace.gz
Heartbeat CPU 0 instructions: 150000000 cycles: 68142945 heartbeat IPC: 2.27107 cumulative IPC: 2.20126 (Simulation time: 0 hr 5 min 3 sec) 
Heartbeat CPU 0 instructions: 151000002 cycles: 68596600 heartbeat IPC: 2.20432 cumulative IPC: 2.20128 (Simulation time: 0 hr 5 min 5 sec) 
Heartbeat CPU 0 instructions: 152000000 cycles: 69049728 heartbeat IPC: 2.20688 cumulative IPC: 2.20131 (Simulation time: 0 hr 5 min 7 sec) 
Heartbeat CPU 0 instructions: 153000002 cycles: 69495397 heartbeat IPC: 2.24382 cumulative IPC: 2.20158 (Simulation time: 0 hr 5 min 9 sec) 
Heartbeat CPU 0 instructions: 154000001 cycles: 69949892 heartbeat IPC: 2.20024 cumulative IPC: 2.20158 (Simulation time: 0 hr 5 min 11 sec) 
Heartbeat CPU 0 instructions: 155000003 cycles: 70328919 heartbeat IPC: 2.63834 cumulative IPC: 2.20393 (Simulation time: 0 hr 5 min 13 sec) 
Heartbeat CPU 0 instructions: 156000000 cycles: 70783965 heartbeat IPC: 2.19757 cumulative IPC: 2.20389 (Simulation time: 0 hr 5 min 15 sec) 
Heartbeat CPU 0 instructions: 157000000 cycles: 71325250 heartbeat IPC: 1.84746 cumulative IPC: 2.20118 (Simulation time: 0 hr 5 min 17 sec) 
Heartbeat CPU 0 instructions: 158000000 cycles: 71771929 heartbeat IPC: 2.23874 cumulative IPC: 2.20142 (Simulation time: 0 hr 5 min 19 sec) 
Heartbeat CPU 0 instructions: 159000000 cycles: 72246384 heartbeat IPC: 2.10768 cumulative IPC: 2.2008 (Simulation time: 0 hr 5 min 21 sec) 
*** Reached end of trace for Core: 0 Repeating trace: ../ChampSim_CRC2/trace/bzip2_10M.trace.gz
Heartbeat CPU 0 instructions: 160000000 cycles: 72686719 heartbeat IPC: 2.271 cumulative IPC: 2.20123 (Simulation time: 0 hr 5 min 23 sec) 
Heartbeat CPU 0 instructions: 161000002 cycles: 73141250 heartbeat IPC: 2.20007 cumulative IPC: 2.20122 (Simulation time: 0 hr 5 min 25 sec) 
Heartbeat CPU 0 instructions: 162000001 cycles: 73594506 heartbeat IPC: 2.20626 cumulative IPC: 2.20125 (Simulation time: 0 hr 5 min 27 sec) 
Heartbeat CPU 0 instructions: 163000003 cycles: 74040405 heartbeat IPC: 2.24266 cumulative IPC: 2.2015 (Simulation time: 0 hr 5 min 29 sec) 
Heartbeat CPU 0 instructions: 164000000 cycles: 74495214 heartbeat IPC: 2.19872 cumulative IPC: 2.20148 (Simulation time: 0 hr 5 min 31 sec) 
Heartbeat CPU 0 instructions: 165000000 cycles: 74874618 heartbeat IPC: 2.63571 cumulative IPC: 2.20368 (Simulation time: 0 hr 5 min 33 sec) 
Heartbeat CPU 0 instructions: 166000002 cycles: 75329959 heartbeat IPC: 2.19616 cumulative IPC: 2.20364 (Simulation time: 0 hr 5 min 35 sec) 
Heartbeat CPU 0 instructions: 167000000 cycles: 75870471 heartbeat IPC: 1.85009 cumulative IPC: 2.20112 (Simulation time: 0 hr 5 min 37 sec) 
Heartbeat CPU 0 instructions: 168000000 cycles: 76313487 heartbeat IPC: 2.25725 cumulative IPC: 2.20145 (Simulation time: 0 hr 5 min 39 sec) 
Heartbeat CPU 0 instructions: 169000000 cycles: 76788563 heartbeat IPC: 2.10493 cumulative IPC: 2.20085 (Simulation time: 0 hr 5 min 41 sec) 
*** Reached end of trace for Core: 0 Repeating trace: ../ChampSim_CRC2/trace/bzip2_10M.trace.gz
Heartbeat CPU 0 instructions: 170000000 cycles: 77228886 heartbeat IPC: 2.27106 cumulative IPC: 2.20125 (Simulation time: 0 hr 5 min 43 sec) 
Heartbeat CPU 0 instructions: 171000002 cycles: 77682541 heartbeat IPC: 2.20432 cumulative IPC: 2.20127 (Simulation time: 0 hr 5 min 45 sec) 
Heartbeat CPU 0 instructions: 172000000 cycles: 78135669 heartbeat IPC: 2.20688 cumulative IPC: 2.2013 (Simulation time: 0 hr 5 min 47 sec) 
Heartbeat CPU 0 instructions: 173000002 cycles: 78581339 heartbeat IPC: 2.24382 cumulative IPC: 2.20154 (Simulation time: 0 hr 5 min 49 sec) 
Heartbeat CPU 0 instructions: 174000001 cycles: 79035831 heartbeat IPC: 2.20026 cumulative IPC: 2.20153 (Simulation time: 0 hr 5 min 51 sec) 
Heartbeat CPU 0 instructions: 175000003 cycles: 79414861 heartbeat IPC: 2.63832 cumulative IPC: 2.20362 (Simulation time: 0 hr 5 min 53 sec) 
Heartbeat CPU 0 instructions: 176000000 cycles: 79869908 heartbeat IPC: 2.19757 cumulative IPC: 2.20358 (Simulation time: 0 hr 5 min 55 sec) 
Heartbeat CPU 0 instructions: 177000000 cycles: 80411193 heartbeat IPC: 1.84746 cumulative IPC: 2.20119 (Simulation time: 0 hr 5 min 57 sec) 
Heartbeat CPU 0 instructions: 178000000 cycles: 80857873 heartbeat IPC: 2.23874 cumulative IPC: 2.20139 (Simulation time: 0 hr 5 min 59 sec) 
Heartbeat CPU 0 instructions: 179000000 cycles: 81332328 heartbeat IPC: 2.10768 cumulative IPC: 2.20085 (Simulation time: 0 hr 6 min 1 sec) 
*** Reached end of trace for Core: 0 Repeating trace: ../ChampSim_CRC2/trace/bzip2_10M.trace.gz
Heartbeat CPU 0 instructions: 180000000 cycles: 81772663 heartbeat IPC: 2.271 cumulative IPC: 2.20122 (Simulation time: 0 hr 6 min 3 sec) 
Heartbeat CPU 0 instructions: 181000002 cycles: 82227194 heartbeat IPC: 2.20007 cumulative IPC: 2.20122 (Simulation time: 0 hr 6 min 5 sec) 
Heartbeat CPU 0 instructions: 182000001 cycles: 82680450 heartbeat IPC: 2.20626 cumulative IPC: 2.20125 (Simulation time: 0 hr 6 min 7 sec) 
Heartbeat CPU 0 instructions: 183000003 cycles: 83126352 heartbeat IPC: 2.24265 cumulative IPC: 2.20147 (Simulation time: 0 hr 6 min 9 sec) 
Heartbeat CPU 0 instructions: 184000000 cycles: 83581152 heartbeat IPC: 2.19876 cumulative IPC: 2.20145 (Simulation time: 0 hr 6 min 11 sec) 
Heartbeat CPU 0 instructions: 185000000 cycles: 83960560 heartbeat IPC: 2.63568 cumulative IPC: 2.20342 (Simulation time: 0 hr 6 min 13 sec) 
Heartbeat CPU 0 instructions: 186000002 cycles: 84415901 heartbeat IPC: 2.19616 cumulative IPC: 2.20338 (Simulation time: 0 hr 6 min 15 sec) 
Heartbeat CPU 0 instructions: 187000000 cycles: 84956413 heartbeat IPC: 1.85009 cumulative IPC: 2.20113 (Simulation time: 0 hr 6 min 17 sec) 
Heartbeat CPU 0 instructions: 188000000 cycles: 85399430 heartbeat IPC: 2.25725 cumulative IPC: 2.20142 (Simulation time: 0 hr 6 min 19 sec) 
Heartbeat CPU 0 instructions: 189000000 cycles: 85874506 heartbeat IPC: 2.10493 cumulative IPC: 2.20089 (Simulation time: 0 hr 6 min 21 sec) 
*** Reached end of trace for Core: 0 Repeating trace: ../ChampSim_CRC2/trace/bzip2_10M.trace.gz
Heartbeat CPU 0 instructions: 190000000 cycles: 86314829 heartbeat IPC: 2.27106 cumulative IPC: 2.20124 (Simulation time: 0 hr 6 min 23 sec) 
Heartbeat CPU 0 instructions: 191000002 cycles: 86768484 heartbeat IPC: 2.20432 cumulative IPC: 2.20126 (Simulation time: 0 hr 6 min 25 sec) 
Heartbeat CPU 0 instructions: 192000000 cycles: 87221612 heartbeat IPC: 2.20688 cumulative IPC: 2.20129 (Simulation time: 0 hr 6 min 27 sec) 
Heartbeat CPU 0 instructions: 193000002 cycles: 87667277 heartbeat IPC: 2.24384 cumulative IPC: 2.20151 (Simulation time: 0 hr 6 min 29 sec) 
Heartbeat CPU 0 instructions: 194000001 cycles: 88121770 heartbeat IPC: 2.20025 cumulative IPC: 2.2015 (Simulation time: 0 hr 6 min 31 sec) 
Heartbeat CPU 0 instructions: 195000003 cycles: 88500801 heartbeat IPC: 2.63831 cumulative IPC: 2.20337 (Simulation time: 0 hr 6 min 33 sec) 
Heartbeat CPU 0 instructions: 196000000 cycles: 88955847 heartbeat IPC: 2.19757 cumulative IPC: 2.20334 (Simulation time: 0 hr 6 min 35 sec) 
Heartbeat CPU 0 instructions: 197000000 cycles: 89497132 heartbeat IPC: 1.84746 cumulative IPC: 2.20119 (Simulation time: 0 hr 6 min 37 sec) 
Heartbeat CPU 0 instructions: 198000000 cycles: 89943811 heartbeat IPC: 2.23874 cumulative IPC: 2.20137 (Simulation time: 0 hr 6 min 39 sec) 
Heartbeat CPU 0 instructions: 199000000 cycles: 90418266 heartbeat IPC: 2.10768 cumulative IPC: 2.20088 (Simulation time: 0 hr 6 min 41 sec) 
*** Reached end of trace for Core: 0 Repeating trace: ../ChampSim_CRC2/trace/bzip2_10M.trace.gz
Heartbeat CPU 0 instructions: 200000000 cycles: 90858601 heartbeat IPC: 2.271 cumulative IPC: 2.20122 (Simulation time: 0 hr 6 min 43 sec) 

Warmup complete CPU 0 instructions: 200000001 cycles: 90858602 (Simulation time: 0 hr 6 min 43 sec) 

Heartbeat CPU 0 instructions: 201000002 cycles: 92255827 heartbeat IPC: 0.715705 cumulative IPC: 0.715705 (Simulation time: 0 hr 6 min 45 sec) 
Heartbeat CPU 0 instructions: 202000001 cycles: 93739158 heartbeat IPC: 0.674158 cumulative IPC: 0.69431 (Simulation time: 0 hr 6 min 47 sec) 
Heartbeat CPU 0 instructions: 203000002 cycles: 95226788 heartbeat IPC: 0.672211 cumulative IPC: 0.686784 (Simulation time: 0 hr 6 min 49 sec) 
Heartbeat CPU 0 instructions: 204000000 cycles: 96338223 heartbeat IPC: 0.899736 cumulative IPC: 0.729977 (Simulation time: 0 hr 6 min 51 sec) 
Heartbeat CPU 0 instructions: 205000002 cycles: 97248680 heartbeat IPC: 1.09835 cumulative IPC: 0.782463 (Simulation time: 0 hr 6 min 53 sec) 
Heartbeat CPU 0 instructions: 206000002 cycles: 98166047 heartbeat IPC: 1.09008 cumulative IPC: 0.821081 (Simulation time: 0 hr 6 min 55 sec) 
Heartbeat CPU 0 instructions: 207000000 cycles: 98973106 heartbeat IPC: 1.23906 cumulative IPC: 0.862653 (Simulation time: 0 hr 6 min 57 sec) 
Heartbeat CPU 0 instructions: 208000000 cycles: 100355348 heartbeat IPC: 0.723462 cumulative IPC: 0.842394 (Simulation time: 0 hr 6 min 59 sec) 
Heartbeat CPU 0 instructions: 209000002 cycles: 101689676 heartbeat IPC: 0.749442 cumulative IPC: 0.830943 (Simulation time: 0 hr 7 min 1 sec) 
*** Reached end of trace for Core: 0 Repeating trace: ../ChampSim_CRC2/trace/bzip2_10M.trace.gz
Heartbeat CPU 0 instructions: 210000001 cycles: 103261727 heartbeat IPC: 0.636111 cumulative IPC: 0.806248 (Simulation time: 0 hr 7 min 3 sec) 
Heartbeat CPU 0 instructions: 211000002 cycles: 104658193 heartbeat IPC: 0.716094 cumulative IPC: 0.797125 (Simulation time: 0 hr 7 min 5 sec) 
Heartbeat CPU 0 instructions: 212000000 cycles: 106141081 heartbeat IPC: 0.674358 cumulative IPC: 0.785213 (Simulation time: 0 hr 7 min 7 sec) 
Heartbeat CPU 0 instructions: 213000002 cycles: 107630105 heartbeat IPC: 0.671582 cumulative IPC: 0.775124 (Simulation time: 0 hr 7 min 9 sec) 
Heartbeat CPU 0 instructions: 214000002 cycles: 108740887 heartbeat IPC: 0.900267 cumulative IPC: 0.782898 (Simulation time: 0 hr 7 min 11 sec) 
Heartbeat CPU 0 instructions: 215000000 cycles: 109649351 heartbeat IPC: 1.10076 cumulative IPC: 0.798265 (Simulation time: 0 hr 7 min 13 sec) 
Heartbeat CPU 0 instructions: 216000000 cycles: 110567647 heartbeat IPC: 1.08897 cumulative IPC: 0.81181 (Simulation time: 0 hr 7 min 15 sec) 
Heartbeat CPU 0 instructions: 217000000 cycles: 111375756 heartbeat IPC: 1.23746 cumulative IPC: 0.828575 (Simulation time: 0 hr 7 min 17 sec) 
Heartbeat CPU 0 instructions: 218000000 cycles: 112758196 heartbeat IPC: 0.723359 cumulative IPC: 0.821933 (Simulation time: 0 hr 7 min 19 sec) 
Heartbeat CPU 0 instructions: 219000002 cycles: 114092873 heartbeat IPC: 0.749246 cumulative IPC: 0.817758 (Simulation time: 0 hr 7 min 21 sec) 
*** Reached end of trace for Core: 0 Repeating trace: ../ChampSim_CRC2/trace/bzip2_10M.trace.gz
Heartbeat CPU 0 instructions: 220000000 cycles: 115666414 heartbeat IPC: 0.635508 cumulative IPC: 0.806198 (Simulation time: 0 hr 7 min 23 sec) 
Heartbeat CPU 0 instructions: 221000002 cycles: 117064033 heartbeat IPC: 0.715504 cumulative IPC: 0.801361 (Simulation time: 0 hr 7 min 25 sec) 
Heartbeat CPU 0 instructions: 222000001 cycles: 118547281 heartbeat IPC: 0.674195 cumulative IPC: 0.794549 (Simulation time: 0 hr 7 min 27 sec) 
Heartbeat CPU 0 instructions: 223000002 cycles: 120036360 heartbeat IPC: 0.671557 cumulative IPC: 0.788272 (Simulation time: 0 hr 7 min 29 sec) 
Heartbeat CPU 0 instructions: 224000000 cycles: 121147686 heartbeat IPC: 0.899824 cumulative IPC: 0.792365 (Simulation time: 0 hr 7 min 31 sec) 
Heartbeat CPU 0 instructions: 225000002 cycles: 122056985 heartbeat IPC: 1.09975 cumulative IPC: 0.801324 (Simulation time: 0 hr 7 min 33 sec) 
Heartbeat CPU 0 instructions: 226000002 cycles: 122974382 heartbeat IPC: 1.09004 cumulative IPC: 0.809571 (Simulation time: 0 hr 7 min 35 sec) 
Heartbeat CPU 0 instructions: 227000000 cycles: 123781148 heartbeat IPC: 1.23951 cumulative IPC: 0.820107 (Simulation time: 0 hr 7 min 37 sec) 
Heartbeat CPU 0 instructions: 228000000 cycles: 125163606 heartbeat IPC: 0.723349 cumulative IPC: 0.816207 (Simulation time: 0 hr 7 min 39 sec) 
Heartbeat CPU 0 instructions: 229000002 cycles: 126497934 heartbeat IPC: 0.749442 cumulative IPC: 0.813708 (Simulation time: 0 hr 7 min 41 sec) 
*** Reached end of trace for Core: 0 Repeating trace: ../ChampSim_CRC2/trace/bzip2_10M.trace.gz
Heartbeat CPU 0 instructions: 230000001 cycles: 128069924 heartbeat IPC: 0.636136 cumulative IPC: 0.806206 (Simulation time: 0 hr 7 min 43 sec) 
Heartbeat CPU 0 instructions: 231000002 cycles: 129466205 heartbeat IPC: 0.716189 cumulative IPC: 0.802951 (Simulation time: 0 hr 7 min 45 sec) 
Heartbeat CPU 0 instructions: 232000000 cycles: 130949128 heartbeat IPC: 0.674343 cumulative IPC: 0.798194 (Simulation time: 0 hr 7 min 46 sec) 
Heartbeat CPU 0 instructions: 233000002 cycles: 132438015 heartbeat IPC: 0.671644 cumulative IPC: 0.793662 (Simulation time: 0 hr 7 min 48 sec) 
Heartbeat CPU 0 instructions: 234000002 cycles: 133549234 heartbeat IPC: 0.899913 cumulative IPC: 0.796428 (Simulation time: 0 hr 7 min 50 sec) 
Heartbeat CPU 0 instructions: 235000000 cycles: 134459473 heartbeat IPC: 1.09861 cumulative IPC: 0.802736 (Simulation time: 0 hr 7 min 52 sec) 
Heartbeat CPU 0 instructions: 236000000 cycles: 135377666 heartbeat IPC: 1.0891 cumulative IPC: 0.808642 (Simulation time: 0 hr 7 min 54 sec) 
Heartbeat CPU 0 instructions: 237000000 cycles: 136185529 heartbeat IPC: 1.23783 cumulative IPC: 0.816292 (Simulation time: 0 hr 7 min 57 sec) 
Heartbeat CPU 0 instructions: 238000000 cycles: 137568283 heartbeat IPC: 0.723194 cumulative IPC: 0.813536 (Simulation time: 0 hr 7 min 58 sec) 
Heartbeat CPU 0 instructions: 239000002 cycles: 138902892 heartbeat IPC: 0.749285 cumulative IPC: 0.811751 (Simulation time: 0 hr 8 min 0 sec) 
*** Reached end of trace for Core: 0 Repeating trace: ../ChampSim_CRC2/trace/bzip2_10M.trace.gz
Heartbeat CPU 0 instructions: 240000000 cycles: 140476418 heartbeat IPC: 0.635514 cumulative IPC: 0.806162 (Simulation time: 0 hr 8 min 2 sec) 
Heartbeat CPU 0 instructions: 241000002 cycles: 141873878 heartbeat IPC: 0.715585 cumulative IPC: 0.803681 (Simulation time: 0 hr 8 min 4 sec) 
Heartbeat CPU 0 instructions: 242000001 cycles: 143357097 heartbeat IPC: 0.674209 cumulative IPC: 0.800023 (Simulation time: 0 hr 8 min 6 sec) 
Heartbeat CPU 0 instructions: 243000002 cycles: 144846501 heartbeat IPC: 0.67141 cumulative IPC: 0.796475 (Simulation time: 0 hr 8 min 8 sec) 
Heartbeat CPU 0 instructions: 244000000 cycles: 145958339 heartbeat IPC: 0.89941 cumulative IPC: 0.798552 (Simulation time: 0 hr 8 min 10 sec) 
Heartbeat CPU 0 instructions: 245000002 cycles: 146867763 heartbeat IPC: 1.0996 cumulative IPC: 0.80344 (Simulation time: 0 hr 8 min 12 sec) 
Heartbeat CPU 0 instructions: 246000002 cycles: 147785160 heartbeat IPC: 1.09004 cumulative IPC: 0.808059 (Simulation time: 0 hr 8 min 14 sec) 
Heartbeat CPU 0 instructions: 247000000 cycles: 148592286 heartbeat IPC: 1.23896 cumulative IPC: 0.814083 (Simulation time: 0 hr 8 min 16 sec) 
Heartbeat CPU 0 instructions: 248000000 cycles: 149974343 heartbeat IPC: 0.723559 cumulative IPC: 0.811966 (Simulation time: 0 hr 8 min 18 sec) 
Heartbeat CPU 0 instructions: 249000002 cycles: 151308671 heartbeat IPC: 0.749442 cumulative IPC: 0.810586 (Simulation time: 0 hr 8 min 20 sec) 
*** Reached end of trace for Core: 0 Repeating trace: ../ChampSim_CRC2/trace/bzip2_10M.trace.gz
Heartbeat CPU 0 instructions: 250000001 cycles: 152880661 heartbeat IPC: 0.636136 cumulative IPC: 0.806165 (Simulation time: 0 hr 8 min 22 sec) 
Heartbeat CPU 0 instructions: 251000002 cycles: 154276942 heartbeat IPC: 0.716189 cumulative IPC: 0.804184 (Simulation time: 0 hr 8 min 24 sec) 
Heartbeat CPU 0 instructions: 252000000 cycles: 155760151 heartbeat IPC: 0.674212 cumulative IPC: 0.801214 (Simulation time: 0 hr 8 min 26 sec) 
Heartbeat CPU 0 instructions: 253000002 cycles: 157249194 heartbeat IPC: 0.671574 cumulative IPC: 0.798306 (Simulation time: 0 hr 8 min 28 sec) 
Heartbeat CPU 0 instructions: 254000002 cycles: 158359861 heartbeat IPC: 0.90036 cumulative IPC: 0.799985 (Simulation time: 0 hr 8 min 30 sec) 
Heartbeat CPU 0 instructions: 255000000 cycles: 159267296 heartbeat IPC: 1.10201 cumulative IPC: 0.803991 (Simulation time: 0 hr 8 min 32 sec) 
Heartbeat CPU 0 instructions: 256000000 cycles: 160185483 heartbeat IPC: 1.0891 cumulative IPC: 0.807767 (Simulation time: 0 hr 8 min 34 sec) 
Heartbeat CPU 0 instructions: 257000000 cycles: 160993585 heartbeat IPC: 1.23747 cumulative IPC: 0.812719 (Simulation time: 0 hr 8 min 36 sec) 
Heartbeat CPU 0 instructions: 258000000 cycles: 162376214 heartbeat IPC: 0.72326 cumulative IPC: 0.810989 (Simulation time: 0 hr 8 min 38 sec) 
Heartbeat CPU 0 instructions: 259000002 cycles: 163710969 heartbeat IPC: 0.749203 cumulative IPC: 0.809857 (Simulation time: 0 hr 8 min 40 sec) 
*** Reached end of trace for Core: 0 Repeating trace: ../ChampSim_CRC2/trace/bzip2_10M.trace.gz
Heartbeat CPU 0 instructions: 260000000 cycles: 165284495 heartbeat IPC: 0.635514 cumulative IPC: 0.806171 (Simulation time: 0 hr 8 min 42 sec) 
Heartbeat CPU 0 instructions: 261000002 cycles: 166682365 heartbeat IPC: 0.715376 cumulative IPC: 0.804497 (Simulation time: 0 hr 8 min 44 sec) 
Heartbeat CPU 0 instructions: 262000001 cycles: 168165805 heartbeat IPC: 0.674108 cumulative IPC: 0.801995 (Simulation time: 0 hr 8 min 46 sec) 
Heartbeat CPU 0 instructions: 263000002 cycles: 169654231 heartbeat IPC: 0.671851 cumulative IPC: 0.799537 (Simulation time: 0 hr 8 min 48 sec) 
Heartbeat CPU 0 instructions: 264000000 cycles: 170765757 heartbeat IPC: 0.899662 cumulative IPC: 0.800929 (Simulation time: 0 hr 8 min 50 sec) 
Heartbeat CPU 0 instructions: 265000002 cycles: 171675763 heartbeat IPC: 1.0989 cumulative IPC: 0.804285 (Simulation time: 0 hr 8 min 52 sec) 
Heartbeat CPU 0 instructions: 266000002 cycles: 172593005 heartbeat IPC: 1.09022 cumulative IPC: 0.807494 (Simulation time: 0 hr 8 min 54 sec) 
Heartbeat CPU 0 instructions: 267000000 cycles: 173400012 heartbeat IPC: 1.23914 cumulative IPC: 0.811714 (Simulation time: 0 hr 8 min 56 sec) 
Heartbeat CPU 0 instructions: 268000000 cycles: 174782254 heartbeat IPC: 0.723462 cumulative IPC: 0.81026 (Simulation time: 0 hr 8 min 58 sec) 
Heartbeat CPU 0 instructions: 269000002 cycles: 176116582 heartbeat IPC: 0.749442 cumulative IPC: 0.809308 (Simulation time: 0 hr 9 min 0 sec) 
*** Reached end of trace for Core: 0 Repeating trace: ../ChampSim_CRC2/trace/bzip2_10M.trace.gz
Heartbeat CPU 0 instructions: 270000001 cycles: 177688572 heartbeat IPC: 0.636136 cumulative IPC: 0.806173 (Simulation time: 0 hr 9 min 2 sec) 
Heartbeat CPU 0 instructions: 271000002 cycles: 179084853 heartbeat IPC: 0.716189 cumulative IPC: 0.804749 (Simulation time: 0 hr 9 min 4 sec) 
Heartbeat CPU 0 instructions: 272000000 cycles: 180567605 heartbeat IPC: 0.67442 cumulative IPC: 0.802595 (Simulation time: 0 hr 9 min 6 sec) 
Heartbeat CPU 0 instructions: 273000002 cycles: 182057310 heartbeat IPC: 0.671275 cumulative IPC: 0.80045 (Simulation time: 0 hr 9 min 8 sec) 
Heartbeat CPU 0 instructions: 274000002 cycles: 183167654 heartbeat IPC: 0.900622 cumulative IPC: 0.801655 (Simulation time: 0 hr 9 min 9 sec) 
Heartbeat CPU 0 instructions: 275000000 cycles: 184076196 heartbeat IPC: 1.10066 cumulative IPC: 0.804569 (Simulation time: 0 hr 9 min 12 sec) 
Heartbeat CPU 0 instructions: 276000000 cycles: 184994492 heartbeat IPC: 1.08897 cumulative IPC: 0.807343 (Simulation time: 0 hr 9 min 14 sec) 
Heartbeat CPU 0 instructions: 277000000 cycles: 185802407 heartbeat IPC: 1.23775 cumulative IPC: 0.811006 (Simulation time: 0 hr 9 min 16 sec) 
Heartbeat CPU 0 instructions: 278000000 cycles: 187185121 heartbeat IPC: 0.723215 cumulative IPC: 0.809746 (Simulation time: 0 hr 9 min 17 sec) 
Heartbeat CPU 0 instructions: 279000002 cycles: 188519798 heartbeat IPC: 0.749246 cumulative IPC: 0.808919 (Simulation time: 0 hr 9 min 19 sec) 
*** Reached end of trace for Core: 0 Repeating trace: ../ChampSim_CRC2/trace/bzip2_10M.trace.gz
Heartbeat CPU 0 instructions: 280000000 cycles: 190093339 heartbeat IPC: 0.635508 cumulative IPC: 0.806169 (Simulation time: 0 hr 9 min 21 sec) 
Heartbeat CPU 0 instructions: 281000002 cycles: 191490799 heartbeat IPC: 0.715585 cumulative IPC: 0.804911 (Simulation time: 0 hr 9 min 23 sec) 
Heartbeat CPU 0 instructions: 282000001 cycles: 192974047 heartbeat IPC: 0.674195 cumulative IPC: 0.803013 (Simulation time: 0 hr 9 min 25 sec) 
Heartbeat CPU 0 instructions: 283000002 cycles: 194462726 heartbeat IPC: 0.671737 cumulative IPC: 0.801126 (Simulation time: 0 hr 9 min 27 sec) 
Heartbeat CPU 0 instructions: 284000000 cycles: 195574223 heartbeat IPC: 0.899686 cumulative IPC: 0.802173 (Simulation time: 0 hr 9 min 29 sec) 
Heartbeat CPU 0 instructions: 285000002 cycles: 196483546 heartbeat IPC: 1.09972 cumulative IPC: 0.804734 (Simulation time: 0 hr 9 min 31 sec) 
Heartbeat CPU 0 instructions: 286000002 cycles: 197400943 heartbeat IPC: 1.09004 cumulative IPC: 0.807191 (Simulation time: 0 hr 9 min 33 sec) 
Heartbeat CPU 0 instructions: 287000000 cycles: 198207932 heartbeat IPC: 1.23917 cumulative IPC: 0.810438 (Simulation time: 0 hr 9 min 35 sec) 
Heartbeat CPU 0 instructions: 288000000 cycles: 199590336 heartbeat IPC: 0.723378 cumulative IPC: 0.809331 (Simulation time: 0 hr 9 min 37 sec) 
Heartbeat CPU 0 instructions: 289000002 cycles: 200924664 heartbeat IPC: 0.749442 cumulative IPC: 0.808605 (Simulation time: 0 hr 9 min 39 sec) 
*** Reached end of trace for Core: 0 Repeating trace: ../ChampSim_CRC2/trace/bzip2_10M.trace.gz
Heartbeat CPU 0 instructions: 290000001 cycles: 202496715 heartbeat IPC: 0.636111 cumulative IPC: 0.806176 (Simulation time: 0 hr 9 min 41 sec) 
Heartbeat CPU 0 instructions: 291000002 cycles: 203893181 heartbeat IPC: 0.716094 cumulative IPC: 0.805063 (Simulation time: 0 hr 9 min 43 sec) 
Heartbeat CPU 0 instructions: 292000000 cycles: 205375797 heartbeat IPC: 0.674482 cumulative IPC: 0.803373 (Simulation time: 0 hr 9 min 45 sec) 
Heartbeat CPU 0 instructions: 293000002 cycles: 206864690 heartbeat IPC: 0.671641 cumulative IPC: 0.801682 (Simulation time: 0 hr 9 min 47 sec) 
Heartbeat CPU 0 instructions: 294000002 cycles: 207975252 heartbeat IPC: 0.900445 cumulative IPC: 0.802619 (Simulation time: 0 hr 9 min 49 sec) 
Heartbeat CPU 0 instructions: 295000000 cycles: 208883908 heartbeat IPC: 1.10052 cumulative IPC: 0.804912 (Simulation time: 0 hr 9 min 51 sec) 
Heartbeat CPU 0 instructions: 296000000 cycles: 209802256 heartbeat IPC: 1.08891 cumulative IPC: 0.807105 (Simulation time: 0 hr 9 min 53 sec) 
Heartbeat CPU 0 instructions: 297000000 cycles: 210610332 heartbeat IPC: 1.23751 cumulative IPC: 0.810009 (Simulation time: 0 hr 9 min 55 sec) 
Heartbeat CPU 0 instructions: 298000000 cycles: 211993054 heartbeat IPC: 0.723211 cumulative IPC: 0.809018 (Simulation time: 0 hr 9 min 57 sec) 
Heartbeat CPU 0 instructions: 299000002 cycles: 213327809 heartbeat IPC: 0.749203 cumulative IPC: 0.808366 (Simulation time: 0 hr 9 min 59 sec) 
*** Reached end of trace for Core: 0 Repeating trace: ../ChampSim_CRC2/trace/bzip2_10M.trace.gz
Heartbeat CPU 0 instructions: 300000000 cycles: 214901335 heartbeat IPC: 0.635514 cumulative IPC: 0.806174 (Simulation time: 0 hr 10 min 1 sec) 
Heartbeat CPU 0 instructions: 301000002 cycles: 216299576 heartbeat IPC: 0.715186 cumulative IPC: 0.80516 (Simulation time: 0 hr 10 min 3 sec) 
Heartbeat CPU 0 instructions: 302000001 cycles: 217782662 heartbeat IPC: 0.674269 cumulative IPC: 0.80363 (Simulation time: 0 hr 10 min 5 sec) 
Heartbeat CPU 0 instructions: 303000002 cycles: 219271667 heartbeat IPC: 0.67159 cumulative IPC: 0.802099 (Simulation time: 0 hr 10 min 7 sec) 
Heartbeat CPU 0 instructions: 304000000 cycles: 220383032 heartbeat IPC: 0.899793 cumulative IPC: 0.802937 (Simulation time: 0 hr 10 min 8 sec) 
Heartbeat CPU 0 instructions: 305000002 cycles: 221292972 heartbeat IPC: 1.09898 cumulative IPC: 0.805003 (Simulation time: 0 hr 10 min 11 sec) 
Heartbeat CPU 0 instructions: 306000002 cycles: 222210479 heartbeat IPC: 1.08991 cumulative IPC: 0.806993 (Simulation time: 0 hr 10 min 13 sec) 
Heartbeat CPU 0 instructions: 307000000 cycles: 223017493 heartbeat IPC: 1.23913 cumulative IPC: 0.809631 (Simulation time: 0 hr 10 min 15 sec) 
Heartbeat CPU 0 instructions: 308000000 cycles: 224399787 heartbeat IPC: 0.723435 cumulative IPC: 0.808739 (Simulation time: 0 hr 10 min 16 sec) 
Heartbeat CPU 0 instructions: 309000002 cycles: 225734033 heartbeat IPC: 0.749488 cumulative IPC: 0.808153 (Simulation time: 0 hr 10 min 18 sec) 
*** Reached end of trace for Core: 0 Repeating trace: ../ChampSim_CRC2/trace/bzip2_10M.trace.gz
Heartbeat CPU 0 instructions: 310000001 cycles: 227306023 heartbeat IPC: 0.636136 cumulative IPC: 0.806171 (Simulation time: 0 hr 10 min 20 sec) 
Heartbeat CPU 0 instructions: 311000002 cycles: 228701934 heartbeat IPC: 0.716379 cumulative IPC: 0.805262 (Simulation time: 0 hr 10 min 22 sec) 
Heartbeat CPU 0 instructions: 312000000 cycles: 230185007 heartbeat IPC: 0.674274 cumulative IPC: 0.803868 (Simulation time: 0 hr 10 min 24 sec) 
Heartbeat CPU 0 instructions: 313000002 cycles: 231674942 heartbeat IPC: 0.671172 cumulative IPC: 0.802464 (Simulation time: 0 hr 10 min 26 sec) 
Heartbeat CPU 0 instructions: 314000002 cycles: 232785135 heartbeat IPC: 0.900744 cumulative IPC: 0.803232 (Simulation time: 0 hr 10 min 28 sec) 
Heartbeat CPU 0 instructions: 315000000 cycles: 233692993 heartbeat IPC: 1.10149 cumulative IPC: 0.805128 (Simulation time: 0 hr 10 min 30 sec) 
Heartbeat CPU 0 instructions: 316000000 cycles: 234611289 heartbeat IPC: 1.08897 cumulative IPC: 0.806941 (Simulation time: 0 hr 10 min 32 sec) 
Heartbeat CPU 0 instructions: 317000000 cycles: 235419354 heartbeat IPC: 1.23752 cumulative IPC: 0.809348 (Simulation time: 0 hr 10 min 34 sec) 
Heartbeat CPU 0 instructions: 318000000 cycles: 236802089 heartbeat IPC: 0.723204 cumulative IPC: 0.808532 (Simulation time: 0 hr 10 min 36 sec) 
Heartbeat CPU 0 instructions: 319000002 cycles: 238137014 heartbeat IPC: 0.749107 cumulative IPC: 0.807994 (Simulation time: 0 hr 10 min 38 sec) 
*** Reached end of trace for Core: 0 Repeating trace: ../ChampSim_CRC2/trace/bzip2_10M.trace.gz
Heartbeat CPU 0 instructions: 320000000 cycles: 239710540 heartbeat IPC: 0.635514 cumulative IPC: 0.80617 (Simulation time: 0 hr 10 min 40 sec) 
Heartbeat CPU 0 instructions: 321000002 cycles: 241108185 heartbeat IPC: 0.715491 cumulative IPC: 0.805327 (Simulation time: 0 hr 10 min 42 sec) 
Heartbeat CPU 0 instructions: 322000001 cycles: 242591758 heartbeat IPC: 0.674048 cumulative IPC: 0.804043 (Simulation time: 0 hr 10 min 44 sec) 
Heartbeat CPU 0 instructions: 323000002 cycles: 244079880 heartbeat IPC: 0.671989 cumulative IPC: 0.802761 (Simulation time: 0 hr 10 min 46 sec) 
Heartbeat CPU 0 instructions: 324000000 cycles: 245191200 heartbeat IPC: 0.899829 cumulative IPC: 0.80346 (Simulation time: 0 hr 10 min 48 sec) 
Heartbeat CPU 0 instructions: 325000002 cycles: 246101695 heartbeat IPC: 1.09831 cumulative IPC: 0.805189 (Simulation time: 0 hr 10 min 50 sec) 
Heartbeat CPU 0 instructions: 326000002 cycles: 247018937 heartbeat IPC: 1.09022 cumulative IPC: 0.806863 (Simulation time: 0 hr 10 min 52 sec) 
Heartbeat CPU 0 instructions: 327000000 cycles: 247826087 heartbeat IPC: 1.23892 cumulative IPC: 0.809085 (Simulation time: 0 hr 10 min 54 sec) 
Heartbeat CPU 0 instructions: 328000000 cycles: 249208219 heartbeat IPC: 0.72352 cumulative IPC: 0.808338 (Simulation time: 0 hr 10 min 56 sec) 
Heartbeat CPU 0 instructions: 329000002 cycles: 250542547 heartbeat IPC: 0.749442 cumulative IPC: 0.807846 (Simulation time: 0 hr 10 min 58 sec) 
*** Reached end of trace for Core: 0 Repeating trace: ../ChampSim_CRC2/trace/bzip2_10M.trace.gz
Heartbeat CPU 0 instructions: 330000001 cycles: 252114537 heartbeat IPC: 0.636136 cumulative IPC: 0.806172 (Simulation time: 0 hr 10 min 59 sec) 
Heartbeat CPU 0 instructions: 331000002 cycles: 253511003 heartbeat IPC: 0.716094 cumulative IPC: 0.805399 (Simulation time: 0 hr 11 min 1 sec) 
Heartbeat CPU 0 instructions: 332000000 cycles: 254993891 heartbeat IPC: 0.674358 cumulative IPC: 0.804215 (Simulation time: 0 hr 11 min 3 sec) 
Heartbeat CPU 0 instructions: 333000002 cycles: 256482860 heartbeat IPC: 0.671607 cumulative IPC: 0.803022 (Simulation time: 0 hr 11 min 5 sec) 
Heartbeat CPU 0 instructions: 334000002 cycles: 257593504 heartbeat IPC: 0.900379 cumulative IPC: 0.803671 (Simulation time: 0 hr 11 min 7 sec) 
Heartbeat CPU 0 instructions: 335000000 cycles: 258499745 heartbeat IPC: 1.10346 cumulative IPC: 0.805292 (Simulation time: 0 hr 11 min 9 sec) 
Heartbeat CPU 0 instructions: 336000000 cycles: 259417932 heartbeat IPC: 1.0891 cumulative IPC: 0.806838 (Simulation time: 0 hr 11 min 11 sec) 
Heartbeat CPU 0 instructions: 337000000 cycles: 260225589 heartbeat IPC: 1.23815 cumulative IPC: 0.808894 (Simulation time: 0 hr 11 min 13 sec) 
Heartbeat CPU 0 instructions: 338000000 cycles: 261608458 heartbeat IPC: 0.723134 cumulative IPC: 0.8082 (Simulation time: 0 hr 11 min 15 sec) 
Heartbeat CPU 0 instructions: 339000002 cycles: 262943213 heartbeat IPC: 0.749203 cumulative IPC: 0.807742 (Simulation time: 0 hr 11 min 17 sec) 
*** Reached end of trace for Core: 0 Repeating trace: ../ChampSim_CRC2/trace/bzip2_10M.trace.gz
Heartbeat CPU 0 instructions: 340000000 cycles: 264516739 heartbeat IPC: 0.635514 cumulative IPC: 0.806182 (Simulation time: 0 hr 11 min 19 sec) 
Heartbeat CPU 0 instructions: 341000002 cycles: 265914541 heartbeat IPC: 0.71541 cumulative IPC: 0.805457 (Simulation time: 0 hr 11 min 21 sec) 
Heartbeat CPU 0 instructions: 342000001 cycles: 267397789 heartbeat IPC: 0.674195 cumulative IPC: 0.804354 (Simulation time: 0 hr 11 min 23 sec) 
Heartbeat CPU 0 instructions: 343000002 cycles: 268886547 heartbeat IPC: 0.671701 cumulative IPC: 0.803245 (Simulation time: 0 hr 11 min 25 sec) 
Heartbeat CPU 0 instructions: 344000000 cycles: 269998139 heartbeat IPC: 0.899609 cumulative IPC: 0.803843 (Simulation time: 0 hr 11 min 27 sec) 
Heartbeat CPU 0 instructions: 345000002 cycles: 270906817 heartbeat IPC: 1.1005 cumulative IPC: 0.80534 (Simulation time: 0 hr 11 min 29 sec) 
Heartbeat CPU 0 instructions: 346000002 cycles: 271824324 heartbeat IPC: 1.08991 cumulative IPC: 0.806783 (Simulation time: 0 hr 11 min 31 sec) 
Heartbeat CPU 0 instructions: 347000000 cycles: 272631050 heartbeat IPC: 1.23958 cumulative IPC: 0.808703 (Simulation time: 0 hr 11 min 33 sec) 
Heartbeat CPU 0 instructions: 348000000 cycles: 274013353 heartbeat IPC: 0.72343 cumulative IPC: 0.80806 (Simulation time: 0 hr 11 min 35 sec) 
Heartbeat CPU 0 instructions: 349000002 cycles: 275347840 heartbeat IPC: 0.749353 cumulative IPC: 0.807635 (Simulation time: 0 hr 11 min 37 sec) 
*** Reached end of trace for Core: 0 Repeating trace: ../ChampSim_CRC2/trace/bzip2_10M.trace.gz
Heartbeat CPU 0 instructions: 350000001 cycles: 276919891 heartbeat IPC: 0.636111 cumulative IPC: 0.806186 (Simulation time: 0 hr 11 min 39 sec) 
Heartbeat CPU 0 instructions: 351000002 cycles: 278316172 heartbeat IPC: 0.716189 cumulative IPC: 0.805516 (Simulation time: 0 hr 11 min 41 sec) 
Heartbeat CPU 0 instructions: 352000000 cycles: 279798953 heartbeat IPC: 0.674407 cumulative IPC: 0.804487 (Simulation time: 0 hr 11 min 43 sec) 
Heartbeat CPU 0 instructions: 353000002 cycles: 281288135 heartbeat IPC: 0.671511 cumulative IPC: 0.803447 (Simulation time: 0 hr 11 min 45 sec) 
Heartbeat CPU 0 instructions: 354000002 cycles: 282398810 heartbeat IPC: 0.900353 cumulative IPC: 0.804009 (Simulation time: 0 hr 11 min 47 sec) 
Heartbeat CPU 0 instructions: 355000000 cycles: 283306873 heartbeat IPC: 1.10124 cumulative IPC: 0.805411 (Simulation time: 0 hr 11 min 49 sec) 
Heartbeat CPU 0 instructions: 356000000 cycles: 284225066 heartbeat IPC: 1.0891 cumulative IPC: 0.806758 (Simulation time: 0 hr 11 min 51 sec) 
Heartbeat CPU 0 instructions: 357000000 cycles: 285033171 heartbeat IPC: 1.23746 cumulative IPC: 0.808551 (Simulation time: 0 hr 11 min 53 sec) 
Heartbeat CPU 0 instructions: 358000000 cycles: 286415731 heartbeat IPC: 0.723296 cumulative IPC: 0.807948 (Simulation time: 0 hr 11 min 55 sec) 
Heartbeat CPU 0 instructions: 359000002 cycles: 287750486 heartbeat IPC: 0.749203 cumulative IPC: 0.80755 (Simulation time: 0 hr 11 min 57 sec) 
*** Reached end of trace for Core: 0 Repeating trace: ../ChampSim_CRC2/trace/bzip2_10M.trace.gz
Heartbeat CPU 0 instructions: 360000000 cycles: 289324027 heartbeat IPC: 0.635508 cumulative IPC: 0.806186 (Simulation time: 0 hr 11 min 58 sec) 
Heartbeat CPU 0 instructions: 361000002 cycles: 290721672 heartbeat IPC: 0.715491 cumulative IPC: 0.805552 (Simulation time: 0 hr 12 min 0 sec) 
Heartbeat CPU 0 instructions: 362000001 cycles: 292204758 heartbeat IPC: 0.674269 cumulative IPC: 0.804585 (Simulation time: 0 hr 12 min 2 sec) 
Heartbeat CPU 0 instructions: 363000002 cycles: 293693649 heartbeat IPC: 0.671642 cumulative IPC: 0.803609 (Simulation time: 0 hr 12 min 4 sec) 
Heartbeat CPU 0 instructions: 364000000 cycles: 294805197 heartbeat IPC: 0.899644 cumulative IPC: 0.804132 (Simulation time: 0 hr 12 min 6 sec) 
Heartbeat CPU 0 instructions: 365000002 cycles: 295714505 heartbeat IPC: 1.09974 cumulative IPC: 0.805444 (Simulation time: 0 hr 12 min 8 sec) 
Heartbeat CPU 0 instructions: 366000002 cycles: 296631902 heartbeat IPC: 1.09004 cumulative IPC: 0.806713 (Simulation time: 0 hr 12 min 10 sec) 
Heartbeat CPU 0 instructions: 367000000 cycles: 297439051 heartbeat IPC: 1.23893 cumulative IPC: 0.808402 (Simulation time: 0 hr 12 min 12 sec) 
Heartbeat CPU 0 instructions: 368000000 cycles: 298821345 heartbeat IPC: 0.723435 cumulative IPC: 0.807837 (Simulation time: 0 hr 12 min 14 sec) 
Heartbeat CPU 0 instructions: 369000002 cycles: 300155832 heartbeat IPC: 0.749353 cumulative IPC: 0.807464 (Simulation time: 0 hr 12 min 16 sec) 
*** Reached end of trace for Core: 0 Repeating trace: ../ChampSim_CRC2/trace/bzip2_10M.trace.gz
Heartbeat CPU 0 instructions: 370000001 cycles: 301727822 heartbeat IPC: 0.636136 cumulative IPC: 0.806187 (Simulation time: 0 hr 12 min 18 sec) 
Heartbeat CPU 0 instructions: 371000002 cycles: 303124103 heartbeat IPC: 0.716189 cumulative IPC: 0.805595 (Simulation time: 0 hr 12 min 20 sec) 
Heartbeat CPU 0 instructions: 372000000 cycles: 304607312 heartbeat IPC: 0.674212 cumulative IPC: 0.804683 (Simulation time: 0 hr 12 min 22 sec) 
Heartbeat CPU 0 instructions: 373000002 cycles: 306095936 heartbeat IPC: 0.671763 cumulative IPC: 0.803764 (Simulation time: 0 hr 12 min 24 sec) 
Heartbeat CPU 0 instructions: 374000002 cycles: 307207092 heartbeat IPC: 0.899964 cumulative IPC: 0.804258 (Simulation time: 0 hr 12 min 26 sec) 
Heartbeat CPU 0 instructions: 375000000 cycles: 308113973 heartbeat IPC: 1.10268 cumulative IPC: 0.805504 (Simulation time: 0 hr 12 min 28 sec) 
Heartbeat CPU 0 instructions: 376000000 cycles: 309032269 heartbeat IPC: 1.08897 cumulative IPC: 0.806697 (Simulation time: 0 hr 12 min 30 sec) 
Heartbeat CPU 0 instructions: 377000000 cycles: 309840337 heartbeat IPC: 1.23752 cumulative IPC: 0.808287 (Simulation time: 0 hr 12 min 32 sec) 
Heartbeat CPU 0 instructions: 378000000 cycles: 311223078 heartbeat IPC: 0.723201 cumulative IPC: 0.807753 (Simulation time: 0 hr 12 min 34 sec) 
Heartbeat CPU 0 instructions: 379000002 cycles: 312557687 heartbeat IPC: 0.749285 cumulative IPC: 0.807401 (Simulation time: 0 hr 12 min 36 sec) 
*** Reached end of trace for Core: 0 Repeating trace: ../ChampSim_CRC2/trace/bzip2_10M.trace.gz
Heartbeat CPU 0 instructions: 380000000 cycles: 314131213 heartbeat IPC: 0.635514 cumulative IPC: 0.806189 (Simulation time: 0 hr 12 min 38 sec) 
Heartbeat CPU 0 instructions: 381000002 cycles: 315528832 heartbeat IPC: 0.715504 cumulative IPC: 0.805625 (Simulation time: 0 hr 12 min 40 sec) 
Heartbeat CPU 0 instructions: 382000001 cycles: 317012296 heartbeat IPC: 0.674097 cumulative IPC: 0.804762 (Simulation time: 0 hr 12 min 42 sec) 
Heartbeat CPU 0 instructions: 383000002 cycles: 318500792 heartbeat IPC: 0.67182 cumulative IPC: 0.803893 (Simulation time: 0 hr 12 min 44 sec) 
Heartbeat CPU 0 instructions: 384000000 cycles: 319611691 heartbeat IPC: 0.90017 cumulative IPC: 0.804361 (Simulation time: 0 hr 12 min 46 sec) 
Heartbeat CPU 0 instructions: 385000002 cycles: 320521404 heartbeat IPC: 1.09925 cumulative IPC: 0.805529 (Simulation time: 0 hr 12 min 48 sec) 
Heartbeat CPU 0 instructions: 386000002 cycles: 321438771 heartbeat IPC: 1.09008 cumulative IPC: 0.806661 (Simulation time: 0 hr 12 min 50 sec) 
Heartbeat CPU 0 instructions: 387000000 cycles: 322245729 heartbeat IPC: 1.23922 cumulative IPC: 0.808169 (Simulation time: 0 hr 12 min 52 sec) 
Heartbeat CPU 0 instructions: 388000000 cycles: 323627930 heartbeat IPC: 0.723484 cumulative IPC: 0.807667 (Simulation time: 0 hr 12 min 54 sec) 
Heartbeat CPU 0 instructions: 389000002 cycles: 324962417 heartbeat IPC: 0.749353 cumulative IPC: 0.807334 (Simulation time: 0 hr 12 min 56 sec) 
*** Reached end of trace for Core: 0 Repeating trace: ../ChampSim_CRC2/trace/bzip2_10M.trace.gz
Heartbeat CPU 0 instructions: 390000001 cycles: 326534407 heartbeat IPC: 0.636136 cumulative IPC: 0.806192 (Simulation time: 0 hr 12 min 58 sec) 
Heartbeat CPU 0 instructions: 391000002 cycles: 327930688 heartbeat IPC: 0.716189 cumulative IPC: 0.805662 (Simulation time: 0 hr 13 min 0 sec) 
Heartbeat CPU 0 instructions: 392000000 cycles: 329413582 heartbeat IPC: 0.674356 cumulative IPC: 0.804846 (Simulation time: 0 hr 13 min 2 sec) 
Heartbeat CPU 0 instructions: 393000002 cycles: 330902870 heartbeat IPC: 0.671463 cumulative IPC: 0.804018 (Simulation time: 0 hr 13 min 4 sec) 
Heartbeat CPU 0 instructions: 394000002 cycles: 332014262 heartbeat IPC: 0.899773 cumulative IPC: 0.80446 (Simulation time: 0 hr 13 min 6 sec) 
Heartbeat CPU 0 instructions: 395000000 cycles: 332921442 heartbeat IPC: 1.10231 cumulative IPC: 0.805576 (Simulation time: 0 hr 13 min 8 sec) 
Heartbeat CPU 0 instructions: 396000000 cycles: 333839629 heartbeat IPC: 1.0891 cumulative IPC: 0.806647 (Simulation time: 0 hr 13 min 10 sec) 
Heartbeat CPU 0 instructions: 397000000 cycles: 334647356 heartbeat IPC: 1.23804 cumulative IPC: 0.808077 (Simulation time: 0 hr 13 min 12 sec) 
Heartbeat CPU 0 instructions: 398000000 cycles: 336030103 heartbeat IPC: 0.723198 cumulative IPC: 0.807598 (Simulation time: 0 hr 13 min 14 sec) 
Heartbeat CPU 0 instructions: 399000002 cycles: 337364858 heartbeat IPC: 0.749203 cumulative IPC: 0.807282 (Simulation time: 0 hr 13 min 16 sec) 
*** Reached end of trace for Core: 0 Repeating trace: ../ChampSim_CRC2/trace/bzip2_10M.trace.gz
Heartbeat CPU 0 instructions: 400000000 cycles: 338938384 heartbeat IPC: 0.635514 cumulative IPC: 0.806192 (Simulation time: 0 hr 13 min 18 sec) 
Heartbeat CPU 0 instructions: 401000002 cycles: 340335844 heartbeat IPC: 0.715585 cumulative IPC: 0.805685 (Simulation time: 0 hr 13 min 20 sec) 
Heartbeat CPU 0 instructions: 402000001 cycles: 341818982 heartbeat IPC: 0.674245 cumulative IPC: 0.804908 (Simulation time: 0 hr 13 min 22 sec) 
Heartbeat CPU 0 instructions: 403000002 cycles: 343307852 heartbeat IPC: 0.671651 cumulative IPC: 0.804122 (Simulation time: 0 hr 13 min 24 sec) 
Heartbeat CPU 0 instructions: 404000000 cycles: 344420447 heartbeat IPC: 0.898798 cumulative IPC: 0.804537 (Simulation time: 0 hr 13 min 26 sec) 
Heartbeat CPU 0 instructions: 405000002 cycles: 345331701 heartbeat IPC: 1.09739 cumulative IPC: 0.805586 (Simulation time: 0 hr 13 min 28 sec) 
Heartbeat CPU 0 instructions: 406000002 cycles: 346248973 heartbeat IPC: 1.09019 cumulative IPC: 0.806608 (Simulation time: 0 hr 13 min 30 sec) 
Heartbeat CPU 0 instructions: 407000000 cycles: 347056382 heartbeat IPC: 1.23853 cumulative IPC: 0.80797 (Simulation time: 0 hr 13 min 32 sec) 
Heartbeat CPU 0 instructions: 408000000 cycles: 348438676 heartbeat IPC: 0.723435 cumulative IPC: 0.807516 (Simulation time: 0 hr 13 min 34 sec) 
Heartbeat CPU 0 instructions: 409000002 cycles: 349773163 heartbeat IPC: 0.749353 cumulative IPC: 0.807216 (Simulation time: 0 hr 13 min 36 sec) 
*** Reached end of trace for Core: 0 Repeating trace: ../ChampSim_CRC2/trace/bzip2_10M.trace.gz
Heartbeat CPU 0 instructions: 410000001 cycles: 351345153 heartbeat IPC: 0.636136 cumulative IPC: 0.806184 (Simulation time: 0 hr 13 min 38 sec) 
Heartbeat CPU 0 instructions: 411000002 cycles: 352741619 heartbeat IPC: 0.716094 cumulative IPC: 0.805703 (Simulation time: 0 hr 13 min 39 sec) 
Heartbeat CPU 0 instructions: 412000000 cycles: 354224400 heartbeat IPC: 0.674407 cumulative IPC: 0.804964 (Simulation time: 0 hr 13 min 41 sec) 
Heartbeat CPU 0 instructions: 413000002 cycles: 355712552 heartbeat IPC: 0.671976 cumulative IPC: 0.804217 (Simulation time: 0 hr 13 min 43 sec) 
Heartbeat CPU 0 instructions: 414000002 cycles: 356823297 heartbeat IPC: 0.900297 cumulative IPC: 0.804618 (Simulation time: 0 hr 13 min 45 sec) 
Heartbeat CPU 0 instructions: 415000000 cycles: 357732041 heartbeat IPC: 1.10042 cumulative IPC: 0.805625 (Simulation time: 0 hr 13 min 47 sec) 
Heartbeat CPU 0 instructions: 416000000 cycles: 358650234 heartbeat IPC: 1.0891 cumulative IPC: 0.806597 (Simulation time: 0 hr 13 min 49 sec) 
Heartbeat CPU 0 instructions: 417000000 cycles: 359458091 heartbeat IPC: 1.23784 cumulative IPC: 0.807894 (Simulation time: 0 hr 13 min 51 sec) 
Heartbeat CPU 0 instructions: 418000000 cycles: 360840747 heartbeat IPC: 0.723246 cumulative IPC: 0.807461 (Simulation time: 0 hr 13 min 53 sec) 
Heartbeat CPU 0 instructions: 419000002 cycles: 362175548 heartbeat IPC: 0.749177 cumulative IPC: 0.807174 (Simulation time: 0 hr 13 min 55 sec) 
*** Reached end of trace for Core: 0 Repeating trace: ../ChampSim_CRC2/trace/bzip2_10M.trace.gz
Heartbeat CPU 0 instructions: 420000000 cycles: 363749089 heartbeat IPC: 0.635508 cumulative IPC: 0.806184 (Simulation time: 0 hr 13 min 57 sec) 
Heartbeat CPU 0 instructions: 421000002 cycles: 365146893 heartbeat IPC: 0.715409 cumulative IPC: 0.805722 (Simulation time: 0 hr 13 min 59 sec) 
Heartbeat CPU 0 instructions: 422000001 cycles: 366630054 heartbeat IPC: 0.674235 cumulative IPC: 0.805014 (Simulation time: 0 hr 14 min 1 sec) 
Heartbeat CPU 0 instructions: 423000002 cycles: 368118435 heartbeat IPC: 0.671872 cumulative IPC: 0.8043 (Simulation time: 0 hr 14 min 3 sec) 
Heartbeat CPU 0 instructions: 424000000 cycles: 369229844 heartbeat IPC: 0.899757 cumulative IPC: 0.804681 (Simulation time: 0 hr 14 min 5 sec) 
Heartbeat CPU 0 instructions: 425000002 cycles: 370140700 heartbeat IPC: 1.09787 cumulative IPC: 0.805637 (Simulation time: 0 hr 14 min 7 sec) 
Heartbeat CPU 0 instructions: 426000002 cycles: 371058207 heartbeat IPC: 1.08991 cumulative IPC: 0.806568 (Simulation time: 0 hr 14 min 9 sec) 
Heartbeat CPU 0 instructions: 427000000 cycles: 371865382 heartbeat IPC: 1.23889 cumulative IPC: 0.80781 (Simulation time: 0 hr 14 min 11 sec) 
Heartbeat CPU 0 instructions: 428000000 cycles: 373247523 heartbeat IPC: 0.723515 cumulative IPC: 0.807397 (Simulation time: 0 hr 14 min 13 sec) 
Heartbeat CPU 0 instructions: 429000002 cycles: 374582010 heartbeat IPC: 0.749353 cumulative IPC: 0.807124 (Simulation time: 0 hr 14 min 15 sec) 
*** Reached end of trace for Core: 0 Repeating trace: ../ChampSim_CRC2/trace/bzip2_10M.trace.gz
Heartbeat CPU 0 instructions: 430000001 cycles: 376154061 heartbeat IPC: 0.636111 cumulative IPC: 0.806182 (Simulation time: 0 hr 14 min 17 sec) 
Heartbeat CPU 0 instructions: 431000002 cycles: 377550340 heartbeat IPC: 0.71619 cumulative IPC: 0.805744 (Simulation time: 0 hr 14 min 19 sec) 
Heartbeat CPU 0 instructions: 432000000 cycles: 379033271 heartbeat IPC: 0.674339 cumulative IPC: 0.805067 (Simulation time: 0 hr 14 min 21 sec) 
Heartbeat CPU 0 instructions: 433000002 cycles: 380522535 heartbeat IPC: 0.671474 cumulative IPC: 0.80438 (Simulation time: 0 hr 14 min 23 sec) 
Heartbeat CPU 0 instructions: 434000002 cycles: 381632645 heartbeat IPC: 0.900812 cumulative IPC: 0.804749 (Simulation time: 0 hr 14 min 25 sec) 
Heartbeat CPU 0 instructions: 435000000 cycles: 382540530 heartbeat IPC: 1.10146 cumulative IPC: 0.805672 (Simulation time: 0 hr 14 min 27 sec) 
Heartbeat CPU 0 instructions: 436000000 cycles: 383458981 heartbeat IPC: 1.08879 cumulative IPC: 0.806561 (Simulation time: 0 hr 14 min 29 sec) 
Heartbeat CPU 0 instructions: 437000000 cycles: 384267102 heartbeat IPC: 1.23744 cumulative IPC: 0.807748 (Simulation time: 0 hr 14 min 31 sec) 
Heartbeat CPU 0 instructions: 438000000 cycles: 385649925 heartbeat IPC: 0.723158 cumulative IPC: 0.807351 (Simulation time: 0 hr 14 min 33 sec) 
Heartbeat CPU 0 instructions: 439000002 cycles: 386984680 heartbeat IPC: 0.749203 cumulative IPC: 0.807089 (Simulation time: 0 hr 14 min 35 sec) 
*** Reached end of trace for Core: 0 Repeating trace: ../ChampSim_CRC2/trace/bzip2_10M.trace.gz
Heartbeat CPU 0 instructions: 440000000 cycles: 388558206 heartbeat IPC: 0.635514 cumulative IPC: 0.806182 (Simulation time: 0 hr 14 min 37 sec) 
Heartbeat CPU 0 instructions: 441000002 cycles: 389955851 heartbeat IPC: 0.715491 cumulative IPC: 0.805758 (Simulation time: 0 hr 14 min 39 sec) 
Heartbeat CPU 0 instructions: 442000001 cycles: 391439315 heartbeat IPC: 0.674097 cumulative IPC: 0.805108 (Simulation time: 0 hr 14 min 41 sec) 
Heartbeat CPU 0 instructions: 443000002 cycles: 392928991 heartbeat IPC: 0.671288 cumulative IPC: 0.804448 (Simulation time: 0 hr 14 min 43 sec) 
Heartbeat CPU 0 instructions: 444000000 cycles: 394040162 heartbeat IPC: 0.89995 cumulative IPC: 0.804798 (Simulation time: 0 hr 14 min 45 sec) 
Heartbeat CPU 0 instructions: 445000002 cycles: 394949697 heartbeat IPC: 1.09947 cumulative IPC: 0.80568 (Simulation time: 0 hr 14 min 47 sec) 
Heartbeat CPU 0 instructions: 446000002 cycles: 395866954 heartbeat IPC: 1.09021 cumulative IPC: 0.806535 (Simulation time: 0 hr 14 min 49 sec) 
Heartbeat CPU 0 instructions: 447000000 cycles: 396674196 heartbeat IPC: 1.23878 cumulative IPC: 0.807676 (Simulation time: 0 hr 14 min 51 sec) 
Heartbeat CPU 0 instructions: 448000000 cycles: 398056438 heartbeat IPC: 0.723462 cumulative IPC: 0.807297 (Simulation time: 0 hr 14 min 53 sec) 
Heartbeat CPU 0 instructions: 449000002 cycles: 399390843 heartbeat IPC: 0.749399 cumulative IPC: 0.807047 (Simulation time: 0 hr 14 min 55 sec) 
*** Reached end of trace for Core: 0 Repeating trace: ../ChampSim_CRC2/trace/bzip2_10M.trace.gz
Heartbeat CPU 0 instructions: 450000001 cycles: 400962833 heartbeat IPC: 0.636136 cumulative IPC: 0.806181 (Simulation time: 0 hr 14 min 57 sec) 
Heartbeat CPU 0 instructions: 451000002 cycles: 402359114 heartbeat IPC: 0.716189 cumulative IPC: 0.805777 (Simulation time: 0 hr 14 min 59 sec) 
Heartbeat CPU 0 instructions: 452000000 cycles: 403842144 heartbeat IPC: 0.674294 cumulative IPC: 0.805154 (Simulation time: 0 hr 15 min 1 sec) 
Heartbeat CPU 0 instructions: 453000002 cycles: 405331217 heartbeat IPC: 0.67156 cumulative IPC: 0.804522 (Simulation time: 0 hr 15 min 3 sec) 
Heartbeat CPU 0 instructions: 454000002 cycles: 406441698 heartbeat IPC: 0.900511 cumulative IPC: 0.804859 (Simulation time: 0 hr 15 min 5 sec) 
Heartbeat CPU 0 instructions: 455000000 cycles: 407348429 heartbeat IPC: 1.10286 cumulative IPC: 0.805713 (Simulation time: 0 hr 15 min 7 sec) 
Heartbeat CPU 0 instructions: 456000000 cycles: 408266725 heartbeat IPC: 1.08897 cumulative IPC: 0.806533 (Simulation time: 0 hr 15 min 9 sec) 
Heartbeat CPU 0 instructions: 457000000 cycles: 409074453 heartbeat IPC: 1.23804 cumulative IPC: 0.807628 (Simulation time: 0 hr 15 min 11 sec) 
Heartbeat CPU 0 instructions: 458000000 cycles: 410457200 heartbeat IPC: 0.723198 cumulative IPC: 0.807263 (Simulation time: 0 hr 15 min 13 sec) 
Heartbeat CPU 0 instructions: 459000002 cycles: 411791955 heartbeat IPC: 0.749203 cumulative IPC: 0.807021 (Simulation time: 0 hr 15 min 15 sec) 
*** Reached end of trace for Core: 0 Repeating trace: ../ChampSim_CRC2/trace/bzip2_10M.trace.gz
Heartbeat CPU 0 instructions: 460000000 cycles: 413365481 heartbeat IPC: 0.635514 cumulative IPC: 0.806184 (Simulation time: 0 hr 15 min 17 sec) 
Heartbeat CPU 0 instructions: 461000002 cycles: 414763100 heartbeat IPC: 0.715504 cumulative IPC: 0.805793 (Simulation time: 0 hr 15 min 19 sec) 
Heartbeat CPU 0 instructions: 462000001 cycles: 416246348 heartbeat IPC: 0.674195 cumulative IPC: 0.805193 (Simulation time: 0 hr 15 min 20 sec) 
Heartbeat CPU 0 instructions: 463000002 cycles: 417735378 heartbeat IPC: 0.671579 cumulative IPC: 0.804585 (Simulation time: 0 hr 15 min 22 sec) 
Heartbeat CPU 0 instructions: 464000000 cycles: 418846524 heartbeat IPC: 0.89997 cumulative IPC: 0.804908 (Simulation time: 0 hr 15 min 24 sec) 
Heartbeat CPU 0 instructions: 465000002 cycles: 419756845 heartbeat IPC: 1.09852 cumulative IPC: 0.80572 (Simulation time: 0 hr 15 min 27 sec) 
Heartbeat CPU 0 instructions: 466000002 cycles: 420674467 heartbeat IPC: 1.08977 cumulative IPC: 0.806511 (Simulation time: 0 hr 15 min 29 sec) 
Heartbeat CPU 0 instructions: 467000000 cycles: 421481639 heartbeat IPC: 1.23889 cumulative IPC: 0.807566 (Simulation time: 0 hr 15 min 31 sec) 
Heartbeat CPU 0 instructions: 468000000 cycles: 422863942 heartbeat IPC: 0.72343 cumulative IPC: 0.807216 (Simulation time: 0 hr 15 min 33 sec) 
Heartbeat CPU 0 instructions: 469000002 cycles: 424198429 heartbeat IPC: 0.749353 cumulative IPC: 0.806984 (Simulation time: 0 hr 15 min 35 sec) 
*** Reached end of trace for Core: 0 Repeating trace: ../ChampSim_CRC2/trace/bzip2_10M.trace.gz
Heartbeat CPU 0 instructions: 470000001 cycles: 425770419 heartbeat IPC: 0.636136 cumulative IPC: 0.806182 (Simulation time: 0 hr 15 min 36 sec) 
Heartbeat CPU 0 instructions: 471000002 cycles: 427166700 heartbeat IPC: 0.716189 cumulative IPC: 0.805809 (Simulation time: 0 hr 15 min 38 sec) 
Heartbeat CPU 0 instructions: 472000000 cycles: 428649481 heartbeat IPC: 0.674407 cumulative IPC: 0.805232 (Simulation time: 0 hr 15 min 40 sec) 
Heartbeat CPU 0 instructions: 473000002 cycles: 430138143 heartbeat IPC: 0.671745 cumulative IPC: 0.804646 (Simulation time: 0 hr 15 min 42 sec) 
Heartbeat CPU 0 instructions: 474000002 cycles: 431249153 heartbeat IPC: 0.900082 cumulative IPC: 0.804958 (Simulation time: 0 hr 15 min 44 sec) 
Heartbeat CPU 0 instructions: 475000000 cycles: 432158500 heartbeat IPC: 1.09969 cumulative IPC: 0.805743 (Simulation time: 0 hr 15 min 46 sec) 
Heartbeat CPU 0 instructions: 476000000 cycles: 433076584 heartbeat IPC: 1.08922 cumulative IPC: 0.806503 (Simulation time: 0 hr 15 min 48 sec) 
Heartbeat CPU 0 instructions: 477000000 cycles: 433884747 heartbeat IPC: 1.23737 cumulative IPC: 0.807519 (Simulation time: 0 hr 15 min 50 sec) 
Heartbeat CPU 0 instructions: 478000000 cycles: 435267307 heartbeat IPC: 0.723296 cumulative IPC: 0.807181 (Simulation time: 0 hr 15 min 52 sec) 
Heartbeat CPU 0 instructions: 479000002 cycles: 436602062 heartbeat IPC: 0.749203 cumulative IPC: 0.806957 (Simulation time: 0 hr 15 min 54 sec) 
*** Reached end of trace for Core: 0 Repeating trace: ../ChampSim_CRC2/trace/bzip2_10M.trace.gz
Heartbeat CPU 0 instructions: 480000000 cycles: 438175588 heartbeat IPC: 0.635514 cumulative IPC: 0.80618 (Simulation time: 0 hr 15 min 56 sec) 
Heartbeat CPU 0 instructions: 481000002 cycles: 439573233 heartbeat IPC: 0.715491 cumulative IPC: 0.805816 (Simulation time: 0 hr 15 min 58 sec) 
Heartbeat CPU 0 instructions: 482000001 cycles: 441056319 heartbeat IPC: 0.674269 cumulative IPC: 0.805259 (Simulation time: 0 hr 16 min 0 sec) 
Heartbeat CPU 0 instructions: 483000002 cycles: 442545094 heartbeat IPC: 0.671694 cumulative IPC: 0.804694 (Simulation time: 0 hr 16 min 2 sec) 
Heartbeat CPU 0 instructions: 484000000 cycles: 443656664 heartbeat IPC: 0.899627 cumulative IPC: 0.804993 (Simulation time: 0 hr 16 min 4 sec) 
Heartbeat CPU 0 instructions: 485000002 cycles: 444566158 heartbeat IPC: 1.09951 cumulative IPC: 0.80575 (Simulation time: 0 hr 16 min 6 sec) 
Heartbeat CPU 0 instructions: 486000002 cycles: 445483555 heartbeat IPC: 1.09004 cumulative IPC: 0.806486 (Simulation time: 0 hr 16 min 8 sec) 
Heartbeat CPU 0 instructions: 487000000 cycles: 446290560 heartbeat IPC: 1.23915 cumulative IPC: 0.807468 (Simulation time: 0 hr 16 min 10 sec) 
Heartbeat CPU 0 instructions: 488000000 cycles: 447672854 heartbeat IPC: 0.723435 cumulative IPC: 0.807143 (Simulation time: 0 hr 16 min 12 sec) 
Heartbeat CPU 0 instructions: 489000002 cycles: 449007341 heartbeat IPC: 0.749353 cumulative IPC: 0.806927 (Simulation time: 0 hr 16 min 14 sec) 
*** Reached end of trace for Core: 0 Repeating trace: ../ChampSim_CRC2/trace/bzip2_10M.trace.gz
Heartbeat CPU 0 instructions: 490000001 cycles: 450579392 heartbeat IPC: 0.636111 cumulative IPC: 0.806181 (Simulation time: 0 hr 16 min 16 sec) 
Heartbeat CPU 0 instructions: 491000002 cycles: 451975673 heartbeat IPC: 0.716189 cumulative IPC: 0.805833 (Simulation time: 0 hr 16 min 18 sec) 
Heartbeat CPU 0 instructions: 492000000 cycles: 453458740 heartbeat IPC: 0.674277 cumulative IPC: 0.805295 (Simulation time: 0 hr 16 min 20 sec) 
Heartbeat CPU 0 instructions: 493000002 cycles: 454948340 heartbeat IPC: 0.671323 cumulative IPC: 0.804747 (Simulation time: 0 hr 16 min 22 sec) 
Heartbeat CPU 0 instructions: 494000002 cycles: 456058401 heartbeat IPC: 0.900851 cumulative IPC: 0.805039 (Simulation time: 0 hr 16 min 24 sec) 
Heartbeat CPU 0 instructions: 495000000 cycles: 456966639 heartbeat IPC: 1.10103 cumulative IPC: 0.805773 (Simulation time: 0 hr 16 min 26 sec) 
Heartbeat CPU 0 instructions: 496000000 cycles: 457884935 heartbeat IPC: 1.08897 cumulative IPC: 0.806482 (Simulation time: 0 hr 16 min 28 sec) 
Heartbeat CPU 0 instructions: 497000000 cycles: 458693288 heartbeat IPC: 1.23708 cumulative IPC: 0.807428 (Simulation time: 0 hr 16 min 30 sec) 
Heartbeat CPU 0 instructions: 498000000 cycles: 460076023 heartbeat IPC: 0.723204 cumulative IPC: 0.807113 (Simulation time: 0 hr 16 min 32 sec) 
Heartbeat CPU 0 instructions: 499000002 cycles: 461410778 heartbeat IPC: 0.749203 cumulative IPC: 0.806904 (Simulation time: 0 hr 16 min 34 sec) 
*** Reached end of trace for Core: 0 Repeating trace: ../ChampSim_CRC2/trace/bzip2_10M.trace.gz
Heartbeat CPU 0 instructions: 500000000 cycles: 462984319 heartbeat IPC: 0.635508 cumulative IPC: 0.806179 (Simulation time: 0 hr 16 min 36 sec) 
Heartbeat CPU 0 instructions: 501000002 cycles: 464382123 heartbeat IPC: 0.715409 cumulative IPC: 0.805839 (Simulation time: 0 hr 16 min 38 sec) 
Heartbeat CPU 0 instructions: 502000001 cycles: 465865454 heartbeat IPC: 0.674158 cumulative IPC: 0.805319 (Simulation time: 0 hr 16 min 39 sec) 
Heartbeat CPU 0 instructions: 503000002 cycles: 467354358 heartbeat IPC: 0.671636 cumulative IPC: 0.80479 (Simulation time: 0 hr 16 min 41 sec) 
Heartbeat CPU 0 instructions: 504000000 cycles: 468465375 heartbeat IPC: 0.900074 cumulative IPC: 0.80507 (Simulation time: 0 hr 16 min 43 sec) 
Heartbeat CPU 0 instructions: 505000002 cycles: 469376411 heartbeat IPC: 1.09765 cumulative IPC: 0.805775 (Simulation time: 0 hr 16 min 46 sec) 
Heartbeat CPU 0 instructions: 506000002 cycles: 470293668 heartbeat IPC: 1.09021 cumulative IPC: 0.806462 (Simulation time: 0 hr 16 min 48 sec) 
Heartbeat CPU 0 instructions: 507000000 cycles: 471100764 heartbeat IPC: 1.23901 cumulative IPC: 0.80738 (Simulation time: 0 hr 16 min 50 sec) 
Heartbeat CPU 0 instructions: 508000000 cycles: 472482944 heartbeat IPC: 0.723495 cumulative IPC: 0.807076 (Simulation time: 0 hr 16 min 52 sec) 
Heartbeat CPU 0 instructions: 509000002 cycles: 473817431 heartbeat IPC: 0.749353 cumulative IPC: 0.806875 (Simulation time: 0 hr 16 min 53 sec) 
*** Reached end of trace for Core: 0 Repeating trace: ../ChampSim_CRC2/trace/bzip2_10M.trace.gz
Heartbeat CPU 0 instructions: 510000001 cycles: 475389421 heartbeat IPC: 0.636136 cumulative IPC: 0.806177 (Simulation time: 0 hr 16 min 55 sec) 
Heartbeat CPU 0 instructions: 511000002 cycles: 476785702 heartbeat IPC: 0.716189 cumulative IPC: 0.805852 (Simulation time: 0 hr 16 min 57 sec) 
Heartbeat CPU 0 instructions: 512000000 cycles: 478268448 heartbeat IPC: 0.674423 cumulative IPC: 0.805349 (Simulation time: 0 hr 16 min 59 sec) 
Heartbeat CPU 0 instructions: 513000002 cycles: 479757850 heartbeat IPC: 0.671412 cumulative IPC: 0.804836 (Simulation time: 0 hr 17 min 1 sec) 
Heartbeat CPU 0 instructions: 514000002 cycles: 480868705 heartbeat IPC: 0.900208 cumulative IPC: 0.805107 (Simulation time: 0 hr 17 min 3 sec) 
Heartbeat CPU 0 instructions: 515000000 cycles: 481776573 heartbeat IPC: 1.10148 cumulative IPC: 0.805796 (Simulation time: 0 hr 17 min 5 sec) 
Heartbeat CPU 0 instructions: 516000000 cycles: 482695014 heartbeat IPC: 1.0888 cumulative IPC: 0.806459 (Simulation time: 0 hr 17 min 7 sec) 
Heartbeat CPU 0 instructions: 517000000 cycles: 483503179 heartbeat IPC: 1.23737 cumulative IPC: 0.807346 (Simulation time: 0 hr 17 min 9 sec) 
Heartbeat CPU 0 instructions: 518000000 cycles: 484885804 heartbeat IPC: 0.723262 cumulative IPC: 0.807051 (Simulation time: 0 hr 17 min 11 sec) 
Heartbeat CPU 0 instructions: 519000002 cycles: 486220413 heartbeat IPC: 0.749285 cumulative IPC: 0.806856 (Simulation time: 0 hr 17 min 13 sec) 
*** Reached end of trace for Core: 0 Repeating trace: ../ChampSim_CRC2/trace/bzip2_10M.trace.gz
[...]
Heartbeat CPU 0 instructions: 1078000000 cycles: 1179525498 heartbeat IPC: 0.723138 cumulative IPC: 0.806491 (Simulation time: 0 hr 35 min 36 sec) 
Heartbeat CPU 0 instructions: 1079000002 cycles: 1180860107 heartbeat IPC: 0.749285 cumulative IPC: 0.806421 (Simulation time: 0 hr 35 min 38 sec) 
*** Reached end of trace for Core: 0 Repeating trace: ../ChampSim_CRC2/trace/bzip2_10M.trace.gz
Heartbeat CPU 0 instructions: 1080000000 cycles: 1182433633 heartbeat IPC: 0.635514 cumulative IPC: 0.806175 (Simulation time: 0 hr 35 min 40 sec) 
Heartbeat CPU 0 instructions: 1081000002 cycles: 1183831217 heartbeat IPC: 0.715522 cumulative IPC: 0.806059 (Simulation time: 0 hr 35 min 42 sec) 
Heartbeat CPU 0 instructions: 1082000001 cycles: 1185314545 heartbeat IPC: 0.674159 cumulative IPC: 0.80588 (Simulation time: 0 hr 35 min 44 sec) 
Heartbeat CPU 0 instructions: 1083000002 cycles: 1186803611 heartbeat IPC: 0.671563 cumulative IPC: 0.805697 (Simulation time: 0 hr 35 min 46 sec) 
Heartbeat CPU 0 instructions: 1084000000 cycles: 1187915489 heartbeat IPC: 0.899377 cumulative IPC: 0.805792 (Simulation time: 0 hr 35 min 48 sec) 
Heartbeat CPU 0 instructions: 1085000002 cycles: 1188824885 heartbeat IPC: 1.09963 cumulative IPC: 0.806036 (Simulation time: 0 hr 35 min 50 sec) 
Heartbeat CPU 0 instructions: 1086000002 cycles: 1189742392 heartbeat IPC: 1.08991 cumulative IPC: 0.806273 (Simulation time: 0 hr 35 min 52 sec) 
Heartbeat CPU 0 instructions: 1087000000 cycles: 1190549430 heartbeat IPC: 1.2391 cumulative IPC: 0.80659 (Simulation time: 0 hr 35 min 54 sec) 
Heartbeat CPU 0 instructions: 1088000000 cycles: 1191931724 heartbeat IPC: 0.723435 cumulative IPC: 0.806486 (Simulation time: 0 hr 35 min 56 sec) 
Heartbeat CPU 0 instructions: 1089000002 cycles: 1193266211 heartbeat IPC: 0.749353 cumulative IPC: 0.806417 (Simulation time: 0 hr 35 min 58 sec) 
*** Reached end of trace for Core: 0 Repeating trace: ../ChampSim_CRC2/trace/bzip2_10M.trace.gz
Heartbeat CPU 0 instructions: 1090000001 cycles: 1194838201 heartbeat IPC: 0.636136 cumulative IPC: 0.806174 (Simulation time: 0 hr 36 min 0 sec) 
Heartbeat CPU 0 instructions: 1091000002 cycles: 1196234482 heartbeat IPC: 0.716189 cumulative IPC: 0.806061 (Simulation time: 0 hr 36 min 2 sec) 
Heartbeat CPU 0 instructions: 1092000000 cycles: 1197717543 heartbeat IPC: 0.67428 cumulative IPC: 0.805884 (Simulation time: 0 hr 36 min 4 sec) 
Heartbeat CPU 0 instructions: 1093000002 cycles: 1199206892 heartbeat IPC: 0.671436 cumulative IPC: 0.805703 (Simulation time: 0 hr 36 min 6 sec) 
Heartbeat CPU 0 instructions: 1094000002 cycles: 1200317164 heartbeat IPC: 0.90068 cumulative IPC: 0.805798 (Simulation time: 0 hr 36 min 8 sec) 
Heartbeat CPU 0 instructions: 1095000000 cycles: 1201225395 heartbeat IPC: 1.10104 cumulative IPC: 0.80604 (Simulation time: 0 hr 36 min 10 sec) 
Heartbeat CPU 0 instructions: 1096000000 cycles: 1202143582 heartbeat IPC: 1.0891 cumulative IPC: 0.806274 (Simulation time: 0 hr 36 min 12 sec) 
Heartbeat CPU 0 instructions: 1097000000 cycles: 1202951935 heartbeat IPC: 1.23708 cumulative IPC: 0.806587 (Simulation time: 0 hr 36 min 14 sec) 
Heartbeat CPU 0 instructions: 1098000000 cycles: 1204334670 heartbeat IPC: 0.723204 cumulative IPC: 0.806483 (Simulation time: 0 hr 36 min 16 sec) 
Heartbeat CPU 0 instructions: 1099000002 cycles: 1205669425 heartbeat IPC: 0.749203 cumulative IPC: 0.806415 (Simulation time: 0 hr 36 min 18 sec) 
*** Reached end of trace for Core: 0 Repeating trace: ../ChampSim_CRC2/trace/bzip2_10M.trace.gz
Heartbeat CPU 0 instructions: 1100000000 cycles: 1207242951 heartbeat IPC: 0.635514 cumulative IPC: 0.806174 (Simulation time: 0 hr 36 min 20 sec) 
Heartbeat CPU 0 instructions: 1101000002 cycles: 1208640755 heartbeat IPC: 0.715409 cumulative IPC: 0.80606 (Simulation time: 0 hr 36 min 22 sec) 
Heartbeat CPU 0 instructions: 1102000001 cycles: 1210124086 heartbeat IPC: 0.674158 cumulative IPC: 0.805886 (Simulation time: 0 hr 36 min 23 sec) 
Heartbeat CPU 0 instructions: 1103000002 cycles: 1211613001 heartbeat IPC: 0.671631 cumulative IPC: 0.805707 (Simulation time: 0 hr 36 min 25 sec) 
Heartbeat CPU 0 instructions: 1104000000 cycles: 1212724179 heartbeat IPC: 0.899944 cumulative IPC: 0.805801 (Simulation time: 0 hr 36 min 27 sec) 
Heartbeat CPU 0 instructions: 1105000002 cycles: 1213634025 heartbeat IPC: 1.09909 cumulative IPC: 0.806038 (Simulation time: 0 hr 36 min 30 sec) 
Heartbeat CPU 0 instructions: 1106000002 cycles: 1214551267 heartbeat IPC: 1.09022 cumulative IPC: 0.80627 (Simulation time: 0 hr 36 min 32 sec) 
Heartbeat CPU 0 instructions: 1107000000 cycles: 1215358337 heartbeat IPC: 1.23905 cumulative IPC: 0.806581 (Simulation time: 0 hr 36 min 34 sec) 
Heartbeat CPU 0 instructions: 1108000000 cycles: 1216740478 heartbeat IPC: 0.723515 cumulative IPC: 0.806479 (Simulation time: 0 hr 36 min 36 sec) 
Heartbeat CPU 0 instructions: 1109000002 cycles: 1218074965 heartbeat IPC: 0.749353 cumulative IPC: 0.806411 (Simulation time: 0 hr 36 min 37 sec) 
*** Reached end of trace for Core: 0 Repeating trace: ../ChampSim_CRC2/trace/bzip2_10M.trace.gz
Heartbeat CPU 0 instructions: 1110000001 cycles: 1219646955 heartbeat IPC: 0.636136 cumulative IPC: 0.806174 (Simulation time: 0 hr 36 min 39 sec) 
Heartbeat CPU 0 instructions: 1111000002 cycles: 1221043236 heartbeat IPC: 0.716189 cumulative IPC: 0.806063 (Simulation time: 0 hr 36 min 41 sec) 
Heartbeat CPU 0 instructions: 1112000000 cycles: 1222525988 heartbeat IPC: 0.67442 cumulative IPC: 0.805891 (Simulation time: 0 hr 36 min 43 sec) 
Heartbeat CPU 0 instructions: 1113000002 cycles: 1224015479 heartbeat IPC: 0.671372 cumulative IPC: 0.805714 (Simulation time: 0 hr 36 min 45 sec) 
Heartbeat CPU 0 instructions: 1114000002 cycles: 1225125871 heartbeat IPC: 0.900583 cumulative IPC: 0.805807 (Simulation time: 0 hr 36 min 47 sec) 
Heartbeat CPU 0 instructions: 1115000000 cycles: 1226034435 heartbeat IPC: 1.10064 cumulative IPC: 0.806043 (Simulation time: 0 hr 36 min 49 sec) 
Heartbeat CPU 0 instructions: 1116000000 cycles: 1226952900 heartbeat IPC: 1.08877 cumulative IPC: 0.806271 (Simulation time: 0 hr 36 min 51 sec) 
Heartbeat CPU 0 instructions: 1117000000 cycles: 1227760631 heartbeat IPC: 1.23804 cumulative IPC: 0.806578 (Simulation time: 0 hr 36 min 53 sec) 
Heartbeat CPU 0 instructions: 1118000000 cycles: 1229143256 heartbeat IPC: 0.723262 cumulative IPC: 0.806477 (Simulation time: 0 hr 36 min 55 sec) 
Heartbeat CPU 0 instructions: 1119000002 cycles: 1230478011 heartbeat IPC: 0.749203 cumulative IPC: 0.80641 (Simulation time: 0 hr 36 min 57 sec) 
*** Reached end of trace for Core: 0 Repeating trace: ../ChampSim_CRC2/trace/bzip2_10M.trace.gz
Heartbeat CPU 0 instructions: 1120000000 cycles: 1232051552 heartbeat IPC: 0.635508 cumulative IPC: 0.806174 (Simulation time: 0 hr 36 min 59 sec) 
Heartbeat CPU 0 instructions: 1121000002 cycles: 1233449012 heartbeat IPC: 0.715585 cumulative IPC: 0.806063 (Simulation time: 0 hr 37 min 1 sec) 
Heartbeat CPU 0 instructions: 1122000001 cycles: 1234932260 heartbeat IPC: 0.674195 cumulative IPC: 0.805892 (Simulation time: 0 hr 37 min 3 sec) 
Heartbeat CPU 0 instructions: 1123000002 cycles: 1236421832 heartbeat IPC: 0.671334 cumulative IPC: 0.805717 (Simulation time: 0 hr 37 min 5 sec) 
Heartbeat CPU 0 instructions: 1124000000 cycles: 1237533210 heartbeat IPC: 0.899782 cumulative IPC: 0.805808 (Simulation time: 0 hr 37 min 7 sec) 
Heartbeat CPU 0 instructions: 1125000002 cycles: 1238443745 heartbeat IPC: 1.09826 cumulative IPC: 0.80604 (Simulation time: 0 hr 37 min 9 sec) 
Heartbeat CPU 0 instructions: 1126000002 cycles: 1239361142 heartbeat IPC: 1.09004 cumulative IPC: 0.806267 (Simulation time: 0 hr 37 min 11 sec) 
Heartbeat CPU 0 instructions: 1127000000 cycles: 1240168616 heartbeat IPC: 1.23843 cumulative IPC: 0.806571 (Simulation time: 0 hr 37 min 13 sec) 
Heartbeat CPU 0 instructions: 1128000000 cycles: 1241551321 heartbeat IPC: 0.72322 cumulative IPC: 0.806471 (Simulation time: 0 hr 37 min 15 sec) 
Heartbeat CPU 0 instructions: 1129000002 cycles: 1242885808 heartbeat IPC: 0.749353 cumulative IPC: 0.806405 (Simulation time: 0 hr 37 min 17 sec) 
*** Reached end of trace for Core: 0 Repeating trace: ../ChampSim_CRC2/trace/bzip2_10M.trace.gz
Heartbeat CPU 0 instructions: 1130000001 cycles: 1244457859 heartbeat IPC: 0.636111 cumulative IPC: 0.806172 (Simulation time: 0 hr 37 min 19 sec) 
Heartbeat CPU 0 instructions: 1131000002 cycles: 1245854325 heartbeat IPC: 0.716094 cumulative IPC: 0.806064 (Simulation time: 0 hr 37 min 21 sec) 
Heartbeat CPU 0 instructions: 1132000000 cycles: 1247337106 heartbeat IPC: 0.674407 cumulative IPC: 0.805895 (Simulation time: 0 hr 37 min 23 sec) 
Heartbeat CPU 0 instructions: 1133000002 cycles: 1248826325 heartbeat IPC: 0.671494 cumulative IPC: 0.805722 (Simulation time: 0 hr 37 min 25 sec) 
Heartbeat CPU 0 instructions: 1134000002 cycles: 1249936717 heartbeat IPC: 0.900583 cumulative IPC: 0.805813 (Simulation time: 0 hr 37 min 27 sec) 
Heartbeat CPU 0 instructions: 1135000000 cycles: 1250844771 heartbeat IPC: 1.10125 cumulative IPC: 0.806044 (Simulation time: 0 hr 37 min 29 sec) 
Heartbeat CPU 0 instructions: 1136000000 cycles: 1251762964 heartbeat IPC: 1.0891 cumulative IPC: 0.806268 (Simulation time: 0 hr 37 min 31 sec) 
Heartbeat CPU 0 instructions: 1137000000 cycles: 1252570873 heartbeat IPC: 1.23776 cumulative IPC: 0.806568 (Simulation time: 0 hr 37 min 33 sec) 
Heartbeat CPU 0 instructions: 1138000000 cycles: 1253953688 heartbeat IPC: 0.723163 cumulative IPC: 0.806469 (Simulation time: 0 hr 37 min 35 sec) 
Heartbeat CPU 0 instructions: 1139000002 cycles: 1255288443 heartbeat IPC: 0.749203 cumulative IPC: 0.806403 (Simulation time: 0 hr 37 min 37 sec) 
*** Reached end of trace for Core: 0 Repeating trace: ../ChampSim_CRC2/trace/bzip2_10M.trace.gz
Heartbeat CPU 0 instructions: 1140000000 cycles: 1256861969 heartbeat IPC: 0.635514 cumulative IPC: 0.806173 (Simulation time: 0 hr 37 min 39 sec) 
Heartbeat CPU 0 instructions: 1141000002 cycles: 1258259773 heartbeat IPC: 0.715409 cumulative IPC: 0.806064 (Simulation time: 0 hr 37 min 41 sec) 
Heartbeat CPU 0 instructions: 1142000001 cycles: 1259742992 heartbeat IPC: 0.674209 cumulative IPC: 0.805897 (Simulation time: 0 hr 37 min 42 sec) 
Heartbeat CPU 0 instructions: 1143000002 cycles: 1261231950 heartbeat IPC: 0.671611 cumulative IPC: 0.805726 (Simulation time: 0 hr 37 min 44 sec) 
Heartbeat CPU 0 instructions: 1144000000 cycles: 1262343537 heartbeat IPC: 0.899613 cumulative IPC: 0.805815 (Simulation time: 0 hr 37 min 46 sec) 
Heartbeat CPU 0 instructions: 1145000002 cycles: 1263252604 heartbeat IPC: 1.10003 cumulative IPC: 0.806043 (Simulation time: 0 hr 37 min 49 sec) 
Heartbeat CPU 0 instructions: 1146000002 cycles: 1264170001 heartbeat IPC: 1.09004 cumulative IPC: 0.806265 (Simulation time: 0 hr 37 min 51 sec) 
Heartbeat CPU 0 instructions: 1147000000 cycles: 1264977511 heartbeat IPC: 1.23837 cumulative IPC: 0.806562 (Simulation time: 0 hr 37 min 53 sec) 
Heartbeat CPU 0 instructions: 1148000000 cycles: 1266359652 heartbeat IPC: 0.723515 cumulative IPC: 0.806465 (Simulation time: 0 hr 37 min 55 sec) 
Heartbeat CPU 0 instructions: 1149000002 cycles: 1267694057 heartbeat IPC: 0.749399 cumulative IPC: 0.8064 (Simulation time: 0 hr 37 min 56 sec) 
*** Reached end of trace for Core: 0 Repeating trace: ../ChampSim_CRC2/trace/bzip2_10M.trace.gz
Heartbeat CPU 0 instructions: 1150000001 cycles: 1269266047 heartbeat IPC: 0.636136 cumulative IPC: 0.806173 (Simulation time: 0 hr 37 min 58 sec) 
Heartbeat CPU 0 instructions: 1151000002 cycles: 1270661958 heartbeat IPC: 0.716379 cumulative IPC: 0.806067 (Simulation time: 0 hr 38 min 0 sec) 
Heartbeat CPU 0 instructions: 1152000000 cycles: 1272145031 heartbeat IPC: 0.674274 cumulative IPC: 0.805901 (Simulation time: 0 hr 38 min 2 sec) 
Heartbeat CPU 0 instructions: 1153000002 cycles: 1273634641 heartbeat IPC: 0.671318 cumulative IPC: 0.805732 (Simulation time: 0 hr 38 min 4 sec) 
Heartbeat CPU 0 instructions: 1154000002 cycles: 1274745179 heartbeat IPC: 0.900464 cumulative IPC: 0.80582 (Simulation time: 0 hr 38 min 6 sec) 
Heartbeat CPU 0 instructions: 1155000000 cycles: 1275652716 heartbeat IPC: 1.10188 cumulative IPC: 0.806047 (Simulation time: 0 hr 38 min 8 sec) 
Heartbeat CPU 0 instructions: 1156000000 cycles: 1276571012 heartbeat IPC: 1.08897 cumulative IPC: 0.806266 (Simulation time: 0 hr 38 min 10 sec) 
Heartbeat CPU 0 instructions: 1157000000 cycles: 1277379124 heartbeat IPC: 1.23745 cumulative IPC: 0.80656 (Simulation time: 0 hr 38 min 12 sec) 
Heartbeat CPU 0 instructions: 1158000000 cycles: 1278761865 heartbeat IPC: 0.723201 cumulative IPC: 0.806463 (Simulation time: 0 hr 38 min 14 sec) 
Heartbeat CPU 0 instructions: 1159000002 cycles: 1280096620 heartbeat IPC: 0.749203 cumulative IPC: 0.806399 (Simulation time: 0 hr 38 min 16 sec) 
*** Reached end of trace for Core: 0 Repeating trace: ../ChampSim_CRC2/trace/bzip2_10M.trace.gz
Heartbeat CPU 0 instructions: 1160000000 cycles: 1281670146 heartbeat IPC: 0.635514 cumulative IPC: 0.806173 (Simulation time: 0 hr 38 min 18 sec) 
Heartbeat CPU 0 instructions: 1161000002 cycles: 1283067791 heartbeat IPC: 0.715491 cumulative IPC: 0.806067 (Simulation time: 0 hr 38 min 20 sec) 
Heartbeat CPU 0 instructions: 1162000001 cycles: 1284551255 heartbeat IPC: 0.674097 cumulative IPC: 0.805903 (Simulation time: 0 hr 38 min 22 sec) 
Heartbeat CPU 0 instructions: 1163000002 cycles: 1286040294 heartbeat IPC: 0.671575 cumulative IPC: 0.805735 (Simulation time: 0 hr 38 min 24 sec) 
Heartbeat CPU 0 instructions: 1164000000 cycles: 1287152087 heartbeat IPC: 0.899446 cumulative IPC: 0.805822 (Simulation time: 0 hr 38 min 26 sec) 
Heartbeat CPU 0 instructions: 1165000002 cycles: 1288061748 heartbeat IPC: 1.09931 cumulative IPC: 0.806045 (Simulation time: 0 hr 38 min 28 sec) 
Heartbeat CPU 0 instructions: 1166000002 cycles: 1288978990 heartbeat IPC: 1.09022 cumulative IPC: 0.806263 (Simulation time: 0 hr 38 min 30 sec) 
Heartbeat CPU 0 instructions: 1167000000 cycles: 1289785865 heartbeat IPC: 1.23935 cumulative IPC: 0.806554 (Simulation time: 0 hr 38 min 32 sec) 
Heartbeat CPU 0 instructions: 1168000000 cycles: 1291168107 heartbeat IPC: 0.723462 cumulative IPC: 0.806459 (Simulation time: 0 hr 38 min 34 sec) 
Heartbeat CPU 0 instructions: 1169000002 cycles: 1292502594 heartbeat IPC: 0.749353 cumulative IPC: 0.806395 (Simulation time: 0 hr 38 min 36 sec) 
*** Reached end of trace for Core: 0 Repeating trace: ../ChampSim_CRC2/trace/bzip2_10M.trace.gz
Heartbeat CPU 0 instructions: 1170000001 cycles: 1294074584 heartbeat IPC: 0.636136 cumulative IPC: 0.806173 (Simulation time: 0 hr 38 min 38 sec) 
Heartbeat CPU 0 instructions: 1171000002 cycles: 1295471050 heartbeat IPC: 0.716094 cumulative IPC: 0.806068 (Simulation time: 0 hr 38 min 40 sec) 
Heartbeat CPU 0 instructions: 1172000000 cycles: 1296953938 heartbeat IPC: 0.674358 cumulative IPC: 0.805906 (Simulation time: 0 hr 38 min 42 sec) 
Heartbeat CPU 0 instructions: 1173000002 cycles: 1298443055 heartbeat IPC: 0.67154 cumulative IPC: 0.805741 (Simulation time: 0 hr 38 min 44 sec) 
Heartbeat CPU 0 instructions: 1174000002 cycles: 1299553808 heartbeat IPC: 0.90029 cumulative IPC: 0.805828 (Simulation time: 0 hr 38 min 46 sec) 
Heartbeat CPU 0 instructions: 1175000000 cycles: 1300460657 heartbeat IPC: 1.10272 cumulative IPC: 0.80605 (Simulation time: 0 hr 38 min 48 sec) 
Heartbeat CPU 0 instructions: 1176000000 cycles: 1301378844 heartbeat IPC: 1.0891 cumulative IPC: 0.806265 (Simulation time: 0 hr 38 min 50 sec) 
Heartbeat CPU 0 instructions: 1177000000 cycles: 1302186776 heartbeat IPC: 1.23773 cumulative IPC: 0.806553 (Simulation time: 0 hr 38 min 52 sec) 
Heartbeat CPU 0 instructions: 1178000000 cycles: 1303569401 heartbeat IPC: 0.723262 cumulative IPC: 0.806458 (Simulation time: 0 hr 38 min 54 sec) 
Heartbeat CPU 0 instructions: 1179000002 cycles: 1304904156 heartbeat IPC: 0.749203 cumulative IPC: 0.806395 (Simulation time: 0 hr 38 min 56 sec) 
*** Reached end of trace for Core: 0 Repeating trace: ../ChampSim_CRC2/trace/bzip2_10M.trace.gz
Heartbeat CPU 0 instructions: 1180000000 cycles: 1306477682 heartbeat IPC: 0.635514 cumulative IPC: 0.806174 (Simulation time: 0 hr 38 min 58 sec) 
Heartbeat CPU 0 instructions: 1181000002 cycles: 1307875301 heartbeat IPC: 0.715504 cumulative IPC: 0.806069 (Simulation time: 0 hr 39 min 0 sec) 
Heartbeat CPU 0 instructions: 1182000001 cycles: 1309358549 heartbeat IPC: 0.674195 cumulative IPC: 0.805909 (Simulation time: 0 hr 39 min 1 sec) 
Heartbeat CPU 0 instructions: 1183000002 cycles: 1310847469 heartbeat IPC: 0.671628 cumulative IPC: 0.805745 (Simulation time: 0 hr 39 min 3 sec) 
Heartbeat CPU 0 instructions: 1184000000 cycles: 1311958937 heartbeat IPC: 0.899709 cumulative IPC: 0.805831 (Simulation time: 0 hr 39 min 5 sec) 
Heartbeat CPU 0 instructions: 1185000002 cycles: 1312869007 heartbeat IPC: 1.09882 cumulative IPC: 0.806049 (Simulation time: 0 hr 39 min 8 sec) 
Heartbeat CPU 0 instructions: 1186000002 cycles: 1313786404 heartbeat IPC: 1.09004 cumulative IPC: 0.806262 (Simulation time: 0 hr 39 min 10 sec) 
Heartbeat CPU 0 instructions: 1187000000 cycles: 1314593802 heartbeat IPC: 1.23854 cumulative IPC: 0.806547 (Simulation time: 0 hr 39 min 12 sec) 
Heartbeat CPU 0 instructions: 1188000000 cycles: 1315976105 heartbeat IPC: 0.72343 cumulative IPC: 0.806453 (Simulation time: 0 hr 39 min 14 sec) 
Heartbeat CPU 0 instructions: 1189000002 cycles: 1317310592 heartbeat IPC: 0.749353 cumulative IPC: 0.806391 (Simulation time: 0 hr 39 min 16 sec) 
*** Reached end of trace for Core: 0 Repeating trace: ../ChampSim_CRC2/trace/bzip2_10M.trace.gz
Heartbeat CPU 0 instructions: 1190000001 cycles: 1318882643 heartbeat IPC: 0.636111 cumulative IPC: 0.806173 (Simulation time: 0 hr 39 min 17 sec) 
Heartbeat CPU 0 instructions: 1191000002 cycles: 1320278924 heartbeat IPC: 0.716189 cumulative IPC: 0.806071 (Simulation time: 0 hr 39 min 19 sec) 
Heartbeat CPU 0 instructions: 1192000000 cycles: 1321761705 heartbeat IPC: 0.674407 cumulative IPC: 0.805912 (Simulation time: 0 hr 39 min 21 sec) 
Heartbeat CPU 0 instructions: 1193000002 cycles: 1323250429 heartbeat IPC: 0.671718 cumulative IPC: 0.80575 (Simulation time: 0 hr 39 min 23 sec) 
Heartbeat CPU 0 instructions: 1194000002 cycles: 1324360851 heartbeat IPC: 0.900559 cumulative IPC: 0.805836 (Simulation time: 0 hr 39 min 25 sec) 
Heartbeat CPU 0 instructions: 1195000000 cycles: 1325268790 heartbeat IPC: 1.10139 cumulative IPC: 0.806053 (Simulation time: 0 hr 39 min 27 sec) 
Heartbeat CPU 0 instructions: 1196000000 cycles: 1326187252 heartbeat IPC: 1.08878 cumulative IPC: 0.806263 (Simulation time: 0 hr 39 min 29 sec) 
Heartbeat CPU 0 instructions: 1197000000 cycles: 1326995367 heartbeat IPC: 1.23745 cumulative IPC: 0.806545 (Simulation time: 0 hr 39 min 31 sec) 
Heartbeat CPU 0 instructions: 1198000000 cycles: 1328377927 heartbeat IPC: 0.723296 cumulative IPC: 0.806452 (Simulation time: 0 hr 39 min 33 sec) 
Heartbeat CPU 0 instructions: 1199000002 cycles: 1329712682 heartbeat IPC: 0.749203 cumulative IPC: 0.80639 (Simulation time: 0 hr 39 min 35 sec) 
*** Reached end of trace for Core: 0 Repeating trace: ../ChampSim_CRC2/trace/bzip2_10M.trace.gz
Heartbeat CPU 0 instructions: 1200000000 cycles: 1331286223 heartbeat IPC: 0.635508 cumulative IPC: 0.806174 (Simulation time: 0 hr 39 min 37 sec) 
Finished CPU 0 instructions: 1000000000 cycles: 1240427629 cummulative IPC: 0.806174 (Simulation time: 0 hr 39 min 37 sec) 

ChampSim completed all CPUs

Region of Interest Statistics

CPU 0 cummulative IPC: 0.806174 instructions: 1000000000 cycles: 1240427629
LLC TOTAL     ACCESS:   10448299  HIT:   10291235  MISS:     157064
LLC LOAD      ACCESS:    6580099  HIT:    6502619  MISS:      77480
LLC RFO       ACCESS:    1674800  HIT:    1602697  MISS:      72103
LLC PREFETCH  ACCESS:          0  HIT:          0  MISS:          0
LLC WRITEBACK ACCESS:    2193400  HIT:    2185919  MISS:       7481
