
*** ChampSim Multicore Out-of-Order Simulator ***

Warmup Instructions: 100000
Simulation Instructions: 1000000
Configuration: 4
Number of CPUs: 4
LLC sets: 8192
LLC ways: 16
Off-chip DRAM Channels: 2 Width: 64-bit Data Rate: 1600 MT/s

CPU 0 runs ../ChampSim_CRC2/trace/bzip2_10M.trace.gz
CPU 1 runs ../ChampSim_CRC2/trace/mcf_10M.trace.gz
CPU 2 runs ../ChampSim_CRC2/trace/libquantum_10M.trace.gz
CPU 3 runs ../ChampSim_CRC2/trace/xalancbmk_10M.trace.gz
CPU 0 L1D next line prefetcher
CPU 0 L2C IP-based stride prefetcher
CPU 1 L1D next line prefetcher
CPU 1 L2C IP-based stride prefetcher
CPU 2 L1D next line prefetcher
CPU 2 L2C IP-based stride prefetcher
CPU 3 L1D next line prefetcher
CPU 3 L2C IP-based stride prefetcher
Initialize LRU replacement state

Warmup complete CPU 0 instructions: 109234 cycles: 51060 (Simulation time: 0 hr 0 min 1 sec) 
Warmup complete CPU 1 instructions: 100001 cycles: 51060 (Simulation time: 0 hr 0 min 1 sec) 
Warmup complete CPU 2 instructions: 121396 cycles: 51059 (Simulation time: 0 hr 0 min 1 sec) 
Warmup complete CPU 3 instructions: 113022 cycles: 51059 (Simulation time: 0 hr 0 min 1 sec) 

Heartbeat CPU 0 instructions: 1000002 cycles: 1659681 heartbeat IPC: 0.602527 cumulative IPC: 0.553746 (Simulation time: 0 hr 0 min 8 sec) 
Finished CPU 0 instructions: 1000001 cycles: 1786115 cummulative IPC: 0.559875 (Simulation time: 0 hr 0 min 9 sec) 
Heartbeat CPU 2 instructions: 1000001 cycles: 2041236 heartbeat IPC: 0.4899 cumulative IPC: 0.441471 (Simulation time: 0 hr 0 min 9 sec) 
Finished CPU 2 instructions: 1000001 cycles: 2305077 cummulative IPC: 0.433825 (Simulation time: 0 hr 0 min 11 sec) 
Heartbeat CPU 0 instructions: 2000001 cycles: 3432220 heartbeat IPC: 0.564162 cumulative IPC: 0.559207 (Simulation time: 0 hr 0 min 15 sec) 
Heartbeat CPU 3 instructions: 1000002 cycles: 3941151 heartbeat IPC: 0.253733 cumulative IPC: 0.22801 (Simulation time: 0 hr 0 min 17 sec) 
Finished CPU 3 instructions: 1000000 cycles: 4457335 cummulative IPC: 0.224349 (Simulation time: 0 hr 0 min 19 sec) 
Heartbeat CPU 2 instructions: 2000001 cycles: 4835689 heartbeat IPC: 0.357852 cumulative IPC: 0.392633 (Simulation time: 0 hr 0 min 20 sec) 
Heartbeat CPU 0 instructions: 3000002 cycles: 5473874 heartbeat IPC: 0.489799 cumulative IPC: 0.533075 (Simulation time: 0 hr 0 min 22 sec) 
Heartbeat CPU 0 instructions: 4000000 cycles: 6906987 heartbeat IPC: 0.69778 cumulative IPC: 0.567504 (Simulation time: 0 hr 0 min 28 sec) 
Heartbeat CPU 0 instructions: 5000003 cycles: 7993341 heartbeat IPC: 0.920513 cumulative IPC: 0.615789 (Simulation time: 0 hr 0 min 32 sec) 
Heartbeat CPU 2 instructions: 3000001 cycles: 8180546 heartbeat IPC: 0.298966 cumulative IPC: 0.354094 (Simulation time: 0 hr 0 min 33 sec) 
Heartbeat CPU 0 instructions: 6000002 cycles: 8970461 heartbeat IPC: 1.02341 cumulative IPC: 0.660444 (Simulation time: 0 hr 0 min 37 sec) 
Heartbeat CPU 3 instructions: 2000000 cycles: 9246872 heartbeat IPC: 0.188475 cumulative IPC: 0.2052 (Simulation time: 0 hr 0 min 38 sec) 
Heartbeat CPU 0 instructions: 7000000 cycles: 9895270 heartbeat IPC: 1.0813 cumulative IPC: 0.699982 (Simulation time: 0 hr 0 min 41 sec) 
Heartbeat CPU 2 instructions: 4000000 cycles: 11375150 heartbeat IPC: 0.313028 cumulative IPC: 0.342509 (Simulation time: 0 hr 0 min 47 sec) 
Heartbeat CPU 0 instructions: 8000000 cycles: 11424143 heartbeat IPC: 0.654077 cumulative IPC: 0.693811 (Simulation time: 0 hr 0 min 47 sec) 
Heartbeat CPU 1 instructions: 1000003 cycles: 11899860 heartbeat IPC: 0.0840349 cumulative IPC: 0.0759572 (Simulation time: 0 hr 0 min 49 sec) 
Heartbeat CPU 0 instructions: 9000002 cycles: 12844879 heartbeat IPC: 0.703862 cumulative IPC: 0.694927 (Simulation time: 0 hr 0 min 52 sec) 
Finished CPU 1 instructions: 1000001 cycles: 14105367 cummulative IPC: 0.0708951 (Simulation time: 0 hr 0 min 57 sec) 

ChampSim completed all CPUs

Total Simulation Statistics

CPU 0 cummulative IPC: 0.684047 instructions: 9648727 cycles: 14105367
LLC TOTAL     ACCESS:     150196  HIT:     117490  MISS:      32706
LLC LOAD      ACCESS:      47083  HIT:      37613  MISS:       9470
LLC RFO       ACCESS:      16584  HIT:       6183  MISS:      10401
LLC PREFETCH  ACCESS:      64520  HIT:      51697  MISS:      12823
LLC WRITEBACK ACCESS:      22009  HIT:      21997  MISS:         12

CPU 1 cummulative IPC: 0.0708951 instructions: 1000001 cycles: 14105367
LLC TOTAL     ACCESS:     199027  HIT:      77953  MISS:     121074
LLC LOAD      ACCESS:      90529  HIT:      30131  MISS:      60398
LLC RFO       ACCESS:       2873  HIT:        910  MISS:       1963
LLC PREFETCH  ACCESS:      79427  HIT:      20729  MISS:      58698
LLC WRITEBACK ACCESS:      26198  HIT:      26183  MISS:         15

CPU 2 cummulative IPC: 0.338291 instructions: 4771725 cycles: 14105368
LLC TOTAL     ACCESS:     476969  HIT:     238389  MISS:     238580
LLC LOAD      ACCESS:     110367  HIT:          0  MISS:     110367
LLC RFO       ACCESS:          0  HIT:          0  MISS:          0
LLC PREFETCH  ACCESS:     128213  HIT:          0  MISS:     128213
LLC WRITEBACK ACCESS:     238389  HIT:     238389  MISS:          0

CPU 3 cummulative IPC: 0.199482 instructions: 2813769 cycles: 14105368
LLC TOTAL     ACCESS:     115756  HIT:        256  MISS:     115500
LLC LOAD      ACCESS:      51824  HIT:        152  MISS:      51672
LLC RFO       ACCESS:          0  HIT:          0  MISS:          0
LLC PREFETCH  ACCESS:      63932  HIT:        104  MISS:      63828
LLC WRITEBACK ACCESS:          0  HIT:          0  MISS:          0

Region of Interest Statistics

CPU 0 cummulative IPC: 0.559875 instructions: 1000001 cycles: 1786115
LLC TOTAL     ACCESS:       8160  HIT:       3076  MISS:       5084
LLC LOAD      ACCESS:       3429  HIT:       1260  MISS:       2169
LLC RFO       ACCESS:          8  HIT:          8  MISS:          0
LLC PREFETCH  ACCESS:       4450  HIT:       1536  MISS:       2914
LLC WRITEBACK ACCESS:        273  HIT:        272  MISS:          1

CPU 1 cummulative IPC: 0.0708951 instructions: 1000001 cycles: 14105367
LLC TOTAL     ACCESS:     199027  HIT:      77953  MISS:     121074
LLC LOAD      ACCESS:      90529  HIT:      30131  MISS:      60398
LLC RFO       ACCESS:       2873  HIT:        910  MISS:       1963
LLC PREFETCH  ACCESS:      79427  HIT:      20729  MISS:      58698
LLC WRITEBACK ACCESS:      26198  HIT:      26183  MISS:         15

CPU 2 cummulative IPC: 0.433825 instructions: 1000001 cycles: 2305077
LLC TOTAL     ACCESS:      99796  HIT:      49802  MISS:      49994
LLC LOAD      ACCESS:      23136  HIT:          0  MISS:      23136
LLC RFO       ACCESS:          0  HIT:          0  MISS:          0
LLC PREFETCH  ACCESS:      26858  HIT:          0  MISS:      26858
LLC WRITEBACK ACCESS:      49802  HIT:      49802  MISS:          0

CPU 3 cummulative IPC: 0.224349 instructions: 1000000 cycles: 4457335
LLC TOTAL     ACCESS:      41808  HIT:        256  MISS:      41552
LLC LOAD      ACCESS:      18658  HIT:        152  MISS:      18506
LLC RFO       ACCESS:          0  HIT:          0  MISS:          0
LLC PREFETCH  ACCESS:      23150  HIT:        104  MISS:      23046
LLC WRITEBACK ACCESS:          0  HIT:          0  MISS:          0
