
*** ChampSim Multicore Out-of-Order Simulator ***

Warmup Instructions: 1000000
Simulation Instructions: 10000000
Configuration: 1
Number of CPUs: 1
LLC sets: 2048
LLC ways: 16
Off-chip DRAM Channels: 1 Width: 64-bit Data Rate: 1600 MT/s

CPU 0 runs ../ChampSim_CRC2/trace/bzip2_10M.trace.gz
Initialize SHiP state
Heartbeat CPU 0 instructions: 1000002 cycles: 454321 heartbeat IPC: 2.20109 cumulative IPC: 2.20109 (Simulation time: 0 hr 0 min 2 sec) 

Warmup complete CPU 0 instructions: 1000002 cycles: 454321 (Simulation time: 0 hr 0 min 2 sec) 

Heartbeat CPU 0 instructions: 2000001 cycles: 2190053 heartbeat IPC: 0.576125 cumulative IPC: 0.576125 (Simulation time: 0 hr 0 min 4 sec) 
Heartbeat CPU 0 instructions: 3000002 cycles: 3968175 heartbeat IPC: 0.562392 cumulative IPC: 0.569176 (Simulation time: 0 hr 0 min 7 sec) 
Heartbeat CPU 0 instructions: 4000000 cycles: 5249486 heartbeat IPC: 0.780449 cumulative IPC: 0.62563 (Simulation time: 0 hr 0 min 9 sec) 
Heartbeat CPU 0 instructions: 5000002 cycles: 6374667 heartbeat IPC: 0.888748 cumulative IPC: 0.675636 (Simulation time: 0 hr 0 min 11 sec) 
Heartbeat CPU 0 instructions: 6000002 cycles: 7329977 heartbeat IPC: 1.04678 cumulative IPC: 0.727203 (Simulation time: 0 hr 0 min 13 sec) 
Heartbeat CPU 0 instructions: 7000000 cycles: 8182002 heartbeat IPC: 1.17367 cumulative IPC: 0.776429 (Simulation time: 0 hr 0 min 16 sec) 
Heartbeat CPU 0 instructions: 8000000 cycles: 9599456 heartbeat IPC: 0.70549 cumulative IPC: 0.765434 (Simulation time: 0 hr 0 min 18 sec) 
Heartbeat CPU 0 instructions: 9000002 cycles: 10938660 heartbeat IPC: 0.746714 cumulative IPC: 0.763043 (Simulation time: 0 hr 0 min 20 sec) 
*** Reached end of trace for Core: 0 Repeating trace: ../ChampSim_CRC2/trace/bzip2_10M.trace.gz
Heartbeat CPU 0 instructions: 10000001 cycles: 12515865 heartbeat IPC: 0.634032 cumulative IPC: 0.746173 (Simulation time: 0 hr 0 min 22 sec) 
Heartbeat CPU 0 instructions: 11000002 cycles: 13919909 heartbeat IPC: 0.712229 cumulative IPC: 0.742634 (Simulation time: 0 hr 0 min 24 sec) 
Finished CPU 0 instructions: 10000000 cycles: 13465588 cummulative IPC: 0.742634 (Simulation time: 0 hr 0 min 24 sec) 

ChampSim completed all CPUs

Region of Interest Statistics

CPU 0 cummulative IPC: 0.742634 instructions: 10000000 cycles: 13465588
LLC TOTAL     ACCESS:     104771  HIT:      84527  MISS:      20244
LLC LOAD      ACCESS:      66109  HIT:      56216  MISS:       9893
LLC RFO       ACCESS:      16745  HIT:       6440  MISS:      10305
LLC PREFETCH  ACCESS:          0  HIT:          0  MISS:          0
LLC WRITEBACK ACCESS:      21917  HIT:      21871  MISS:         46
0 010126 0 0
0 110644 0 0
0 210644 0 0
0 310644 0 0
1 010126 0 0
1 110644 0 0
1 210126 0 0
1 35968 0 0
2 010644 0 0
2 15968 0 0
2 210644 0 0
2 312796 0 0
3 010644 0 0
3 110644 0 0
3 210126 0 0
3 312796 0 0
4 05450 0 0
4 110126 0 0
4 25968 0 0
4 310126 0 0
5 010126 0 0
5 110644 0 0
5 210644 0 0
5 310126 0 0
6 010644 0 0
6 15968 0 0
6 210644 0 0
6 310126 0 0
7 010644 0 0
7 110644 0 0
7 210126 0 0
7 312564 0 0
8 010644 0 0
8 15570 0 0
8 210644 0 0
8 310126 0 0
9 05450 0 0
9 110126 0 0
9 210644 0 0
9 310126 0 0
10 010126 0 0
10 110644 0 0
10 210126 0 0
10 310126 0 0
11 010126 0 0
11 110644 0 0
11 210126 0 0
11 310644 0 0
12 010644 0 0
12 110644 0 0
12 210644 0 0
12 310126 0 0
13 05450 0 0
13 110126 0 0
13 25958 1 0
13 310126 0 0
14 010126 0 0
14 110126 0 0
14 210126 0 0
14 35968 0 0
15 010126 0 0
15 110644 0 0
15 210126 0 0
15 310644 0 0
16 010126 0 0
16 110644 0 0
16 210126 0 0
16 310644 0 0
17 010126 0 0
17 110644 0 0
17 25578 0 0
17 310126 0 0
18 010644 0 0
18 110126 0 0
18 210644 0 0
18 310126 0 0
19 010126 0 0
19 110126 0 0
19 210644 0 0
19 312796 0 0
20 010644 0 0
20 110644 0 0
20 210126 0 0
20 310126 0 0
21 010644 0 0
21 110126 0 0
21 210644 0 0
21 310126 0 0
22 010644 0 0
22 110126 0 0
22 25958 0 0
22 313578 0 0
23 010126 0 0
23 110644 0 0
23 210126 0 0
23 310644 0 0
24 05450 0 0
24 110644 0 0
24 210126 0 0
24 35968 0 0
25 05502 0 0
25 15968 0 0
25 210126 0 0
25 310644 0 0
26 010126 0 0
26 110644 0 0
26 210126 0 0
26 310126 0 0
27 010644 0 0
27 110126 0 0
27 25958 0 0
27 313578 0 0
28 010644 0 0
28 110644 0 0
28 210644 0 0
28 310126 0 0
29 010644 0 0
29 110644 0 0
29 25578 0 0
29 35968 1 0
30 05450 0 0
30 110644 0 0
30 210126 0 0
30 35958 0 0
31 010644 0 0
31 110644 0 0
31 25958 0 0
31 35958 1 0
32 05968 0 0
32 15502 0 0
32 210644 0 0
32 310644 0 0
33 010644 0 0
33 110644 0 0
33 210126 0 0
33 310126 0 0
34 05450 0 0
34 110126 0 0
34 25680 0 0
34 313578 0 0
35 010126 0 0
35 110644 0 0
35 210126 0 0
35 310644 0 0
36 010126 0 0
36 110644 0 0
36 210126 0 0
36 35958 0 0
37 010644 0 0
37 110126 0 0
37 210644 0 0
37 310644 0 0
38 010126 0 0
38 15958 0 0
38 25928 0 0
38 310126 0 0
39 010126 0 0
39 15502 0 0
39 210644 0 0
39 310644 0 0
40 010644 0 0
40 110126 0 0
40 210644 0 0
40 310644 0 0
41 06006 0 0
41 110644 0 0
41 210644 0 0
41 310644 0 0
42 010644 0 0
42 110126 0 0
42 25968 0 0
42 310644 0 0
43 010126 0 0
43 110126 0 0
43 25958 0 0
43 310126 0 0
44 010126 0 0
44 110644 0 0
44 210644 0 0
44 35570 0 0
45 010644 0 0
45 110126 0 0
45 210126 0 0
45 310644 0 0
46 010644 0 0
46 110126 0 0
46 25968 0 0
46 310644 0 0
47 05450 0 0
47 110126 0 0
47 25578 0 0
47 310644 0 0
48 010644 0 0
48 110644 0 0
48 210126 0 0
48 310644 0 0
49 010644 0 0
49 110644 0 0
49 25536 0 0
49 310126 0 0
50 010644 0 0
50 110126 0 0
50 210126 0 0
50 313578 0 0
51 010644 0 0
51 110126 0 0
51 25958 0 0
51 312796 0 0
52 010644 0 0
52 110644 0 0
52 210126 0 0
52 312796 0 0
53 010644 0 0
53 110126 0 0
53 212796 0 0
53 313076 0 0
54 05958 0 0
54 110644 0 0
54 210126 0 0
54 310126 0 0
55 05450 0 0
55 110644 0 0
55 25958 0 0
55 312564 0 0
56 05680 0 0
56 110644 0 0
56 210644 0 0
56 310126 0 0
57 010644 0 0
57 15638 0 0
57 212796 0 0
57 313578 0 0
58 010126 0 0
58 110644 0 0
58 210126 0 0
58 313076 0 0
59 010644 0 0
59 110126 0 0
59 210644 0 0
59 310126 0 0
60 010644 0 0
60 110644 0 0
60 210126 0 0
60 310644 0 0
61 010126 0 0
61 110644 0 0
61 210644 0 0
61 35782 0 0
62 010644 0 0
62 110644 0 0
62 210644 0 0
62 310644 0 0
63 010644 0 0
63 110644 0 0
63 210644 0 0
63 310644 0 0
64 010644 0 0
64 15958 1 0
64 212622 0 0
64 312758 0 0
65 010644 0 0
65 110644 0 0
65 212622 0 0
65 312758 0 0
66 012622 0 0
66 112758 0 0
66 213578 0 0
66 313578 0 0
67 010644 0 0
67 15958 0 0
67 212622 0 0
67 312758 0 0
68 010644 0 0
68 15968 0 0
68 212622 0 0
68 312758 0 0
69 010644 0 0
69 110644 0 0
69 212622 0 0
69 312758 0 0
70 010644 0 0
70 112622 0 0
70 212758 0 0
70 313578 0 0
71 010126 0 0
71 112622 0 0
71 212564 0 0
71 312564 0 0
72 010126 0 0
72 110644 0 0
72 212622 0 0
72 312758 0 0
73 05958 0 0
73 110644 0 0
73 212622 0 0
73 312758 0 0
74 010644 0 0
74 112622 0 0
74 212758 0 0
74 313038 0 0
75 010126 0 0
75 15748 0 0
75 25958 0 0
75 312622 0 0
76 05928 0 0
76 112622 0 0
76 212796 0 0
76 312758 0 0
77 010644 0 0
77 112622 0 0
77 212758 0 0
77 312796 0 0
78 010126 0 0
78 112622 0 0
78 212758 0 0
78 313578 0 0
79 010126 0 0
79 15958 0 0
79 210644 0 0
79 312622 0 0
80 05680 0 0
80 110644 0 0
80 212622 0 0
80 312758 0 0
81 010126 0 0
81 15968 0 0
81 212806 0 0
81 312758 0 0
82 05958 0 0
82 110644 0 0
82 210126 0 0
82 312476 0 0
83 010126 0 0
83 110644 0 0
83 212758 0 0
83 313578 0 0
84 010126 0 0
84 15450 0 0
84 212758 0 0
84 313578 0 0
85 010644 0 0
85 110644 0 0
85 25968 0 0
85 312758 0 0
86 012116 0 0
86 110126 0 0
86 210644 0 0
86 312758 0 0
87 09948 0 0
87 110126 0 0
87 210644 0 0
87 312564 0 0
88 010112 0 0
88 110126 0 0
88 210644 0 0
88 35958 0 0
89 010112 0 0
89 15832 0 0
89 210126 0 0
89 35958 0 0
90 010112 0 0
90 110644 0 0
90 210644 0 0
90 35958 0 0
91 010112 0 0
91 110126 0 0
91 25968 0 0
91 312758 0 0
92 010126 0 0
92 110112 0 0
92 210644 0 0
92 35968 1 0
93 010112 0 0
93 110644 0 0
93 212758 0 0
93 313578 0 0
94 010112 0 0
94 110644 0 0
94 210644 0 0
94 312758 0 0
95 010126 0 0
95 110112 0 0
95 210126 0 0
95 35958 0 0
96 09908 0 0
96 110126 0 0
96 210644 0 0
96 35958 0 0
97 010112 0 0
97 110644 0 0
97 212758 0 0
97 313578 0 0
98 010112 0 0
98 15958 0 0
98 210644 0 0
98 312758 0 0
99 010112 0 0
99 110644 0 0
99 25958 0 0
99 35958 0 0
100 010112 0 0
100 16192 0 0
100 212796 0 0
100 312758 0 0
101 010112 0 0
101 110126 0 0
101 210644 0 0
101 312758 0 0
102 010112 0 0
102 110644 0 0
102 210644 0 0
102 312758 0 0
103 010112 0 0
103 15968 0 0
103 210644 0 0
103 310126 0 0
104 010112 0 0
104 16202 0 0
104 210644 0 0
104 312758 0 0
105 09936 0 0
105 15536 0 0
105 210644 0 0
105 35958 0 0
106 011616 0 0
106 110644 0 0
106 210644 0 0
106 312758 0 0
107 011862 0 0
107 15968 0 0
107 212758 0 0
107 312796 0 0
108 010644 0 0
108 110644 0 0
108 212758 0 0
108 312758 0 0
109 010126 0 0
109 110644 0 0
109 212758 0 0
109 312758 0 0
110 09948 0 0
110 110126 0 0
110 210644 0 0
110 35968 0 0
111 010112 0 0
111 110126 0 0
111 25502 0 0
111 35968 0 0
112 010112 0 0
112 110644 0 0
112 212758 0 0
112 312796 0 0
113 010112 0 0
113 110644 0 0
113 212758 0 0
113 313578 0 0
114 010112 0 0
114 110644 0 0
114 25968 0 0
114 312758 0 0
115 010112 0 0
115 15968 0 0
115 210126 0 0
115 310644 0 0
116 010112 0 0
116 110644 0 0
116 25968 0 0
116 312758 0 0
117 010112 0 0
117 15968 0 0
117 212796 0 0
117 312758 0 0
118 010112 0 0
118 110644 0 0
118 212758 0 0
118 313578 0 0
119 010112 0 0
119 110644 0 0
119 210644 0 0
119 312564 0 0
120 010112 0 0
120 110126 0 0
120 210644 0 0
120 312758 0 0
121 010112 0 0
121 16016 0 0
121 210126 0 0
121 312758 0 0
122 010112 0 0
122 110644 0 0
122 210644 0 0
122 312758 0 0
123 010112 0 0
123 112758 0 0
123 212796 0 0
123 312796 0 0
124 010112 0 0
124 110644 0 0
124 210126 0 0
124 312758 0 0
125 010112 0 0
125 110644 0 0
125 212758 0 0
125 313578 0 0
126 010112 0 0
126 111366 0 0
126 210126 0 0
126 313578 0 0
127 010112 0 0
127 110644 0 0
127 211252 0 0
127 312796 0 0
128 010644 0 0
128 110644 0 0
128 210644 0 0
128 313038 1 0
129 010644 0 0
129 15450 0 0
129 213038 1 0
129 313578 0 0
130 010126 0 0
130 110644 0 0
130 210644 0 0
130 35958 0 0
131 010126 0 0
131 110644 0 0
131 29920 0 0
131 313038 1 0
132 010126 0 0
132 110644 0 0
132 212796 0 0
132 313038 1 0
133 05968 0 0
133 110644 0 0
133 212796 0 0
133 313038 1 0
134 010126 0 0
134 110644 0 0
134 212796 0 0
134 313038 1 0
135 010126 0 0
135 110644 0 0
135 212564 0 0
135 312564 0 0
136 010126 0 0
136 113038 1 0
136 213578 0 0
136 313578 0 0
137 010644 0 0
137 110644 0 0
137 210644 0 0
137 313038 1 0
138 010126 0 0
138 112796 0 0
138 213038 1 0
138 313578 0 0
139 010644 0 0
139 110644 0 0
139 25958 0 0
139 313038 1 0
140 010126 0 0
140 19920 0 0
140 212796 0 0
140 313038 1 0
141 010644 0 0
141 110644 0 0
141 25782 0 0
141 313038 1 0
142 010644 0 0
142 110644 0 0
142 212796 0 0
142 313038 1 0
143 010126 0 0
143 110126 0 0
143 213578 0 0
143 313578 0 0
144 010644 0 0
144 110644 0 0
144 213578 0 0
144 313578 0 0
145 010126 0 0
145 15958 0 0
145 210644 0 0
145 313578 0 0
146 05782 0 0
146 110644 0 0
146 25958 0 0
146 312796 0 0
147 010644 0 0
147 110644 0 0
147 25958 0 0
147 313578 0 0
148 05958 0 0
148 110644 0 0
148 25968 0 0
148 310644 0 0
149 010644 0 0
149 15958 0 0
149 210644 0 0
149 313578 0 0
150 010644 0 0
150 110644 0 0
150 210644 0 0
150 313578 0 0
151 010126 0 0
151 15570 0 0
151 212564 0 0
151 312564 0 0
152 010126 0 0
152 110644 0 0
152 25958 0 0
152 35968 0 0
153 010644 0 0
153 110126 0 0
153 213578 0 0
153 313578 0 0
154 05968 0 0
154 113578 0 0
154 213578 0 0
154 313578 0 0
155 010126 0 0
155 110644 0 0
155 210644 0 0
155 313578 0 0
156 05502 0 0
156 110644 0 0
156 212796 0 0
156 313578 0 0
157 010126 0 0
157 110644 0 0
157 25958 0 0
157 313578 0 0
158 010126 0 0
158 110644 1 0
158 212796 0 0
158 313578 0 0
159 010644 0 0
159 110644 0 0
159 25968 0 0
159 35968 0 0
160 010644 0 0
160 110126 0 0
160 213578 0 0
160 313578 0 0
161 010126 0 0
161 110644 0 0
161 25958 0 0
161 35968 0 0
162 010126 0 0
162 110126 0 0
162 25958 1 0
162 35958 1 0
163 010126 0 0
163 110126 0 0
163 25968 1 0
163 35958 0 0
164 010126 0 0
164 110644 0 0
164 26340 0 0
164 36192 0 0
165 010644 0 0
165 110644 0 0
165 213578 0 0
165 313578 0 0
166 010126 0 0
166 112796 1 0
166 212796 0 0
166 313578 0 0
167 010126 0 0
167 110644 0 0
167 25958 0 0
167 35958 1 0
168 010126 0 0
168 112796 1 0
168 213578 0 0
168 313578 0 0
169 010126 0 0
169 15958 0 0
169 25958 0 0
169 310644 0 0
170 010644 0 0
170 15968 0 0
170 210126 0 0
170 35968 1 0
171 010126 0 0
171 113578 0 0
171 213578 0 0
171 313578 0 0
172 010126 0 0
172 110644 0 0
172 25672 0 0
172 35958 0 0
173 010126 0 0
173 15958 0 0
173 25968 1 0
173 312796 0 0
174 010644 0 0
174 15968 0 0
174 213578 0 0
174 313578 0 0
175 013578 0 0
175 113578 0 0
175 213578 0 0
175 313578 0 0
176 010126 0 0
176 110644 0 0
176 25968 0 0
176 310126 0 0
177 010644 0 0
177 113578 0 0
177 213578 0 0
177 313578 0 0
178 010644 0 0
178 15968 0 0
178 210644 0 0
178 35958 0 0
179 06046 0 0
179 112796 0 0
179 212796 0 0
179 313578 0 0
180 010644 0 0
180 15958 0 0
180 25958 0 0
180 312796 0 0
181 05958 0 0
181 110126 0 0
181 210644 0 0
181 35968 0 0
182 010644 0 0
182 15968 0 0
182 25958 0 0
182 35958 0 0
183 06036 0 0
183 15706 0 0
183 210644 0 0
183 35958 0 0
184 010126 0 0
184 15958 0 0
184 25958 0 0
184 313578 0 0
185 010126 0 0
185 110644 0 0
185 210644 0 0
185 35958 0 0
186 010644 0 0
186 15968 0 0
186 25958 0 0
186 310644 0 0
187 010126 0 0
187 112796 0 0
187 213578 0 0
187 313578 0 0
188 010126 0 0
188 110644 0 0
188 210644 0 0
188 35958 0 0
189 010644 0 0
189 110644 0 0
189 25968 1 0
189 313578 0 0
190 013578 0 0
190 113578 0 0
190 213578 0 0
190 313578 0 0
191 010644 0 0
191 15968 0 0
191 212796 0 0
191 313578 0 0
192 010126 0 0
192 110644 0 0
192 212796 0 0
192 313578 0 0
193 010126 0 0
193 110644 0 0
193 210126 0 0
193 312796 0 0
194 010644 0 0
194 113578 0 0
194 213578 0 0
194 310644 0 0
195 010126 0 0
195 110644 0 0
195 213578 0 0
195 313578 0 0
196 010644 0 0
196 110644 0 0
196 210644 0 0
196 313578 0 0
197 010126 0 0
197 110126 0 0
197 213578 0 0
197 313578 0 0
198 010126 0 0
198 110644 0 0
198 210126 0 0
198 310644 0 0
199 010126 0 0
199 15958 0 0
199 210644 0 0
199 312564 0 0
200 010126 0 0
200 15958 0 0
200 210644 0 0
200 310644 0 0
201 05968 0 0
201 15570 0 0
201 210644 0 0
201 35958 0 0
202 010126 0 0
202 110644 0 0
202 210644 0 0
202 313076 0 0
203 010644 0 0
203 110644 0 0
203 25958 0 0
203 312796 0 0
204 010126 0 0
204 110126 0 0
204 210126 0 0
204 35958 0 0
205 010644 0 0
205 110126 0 0
205 210644 0 0
205 313578 0 0
206 010644 0 0
206 110126 0 0
206 212796 0 0
206 313578 0 0
207 010126 0 0
207 110644 0 0
207 210644 0 0
207 313578 0 0
208 010126 0 0
208 112796 0 0
208 213578 0 0
208 313578 0 0
209 010644 0 0
209 113578 0 0
209 213578 0 0
209 313578 0 0
210 05958 0 0
210 110126 0 0
210 210644 0 0
210 310644 0 0
211 010644 0 0
211 110644 0 0
211 213578 0 0
211 312564 0 0
212 05570 0 0
212 112796 1 0
212 212796 0 0
212 313578 0 0
213 010126 0 0
213 112796 0 0
213 213578 0 0
213 313578 0 0
214 010126 0 0
214 15968 0 0
214 210644 0 0
214 310644 0 0
215 010126 0 0
215 110644 0 0
215 25968 0 0
215 310126 0 0
216 010126 0 0
216 15968 0 0
216 210126 0 0
216 312796 0 0
217 010126 0 0
217 110126 0 0
217 26114 0 0
217 310644 0 0
218 010126 0 0
218 110126 0 0
218 212796 0 0
218 313578 0 0
219 010644 0 0
219 110126 0 0
219 210644 0 0
219 312796 1 0
220 05968 0 0
220 110644 0 0
220 210126 0 0
220 35740 0 0
221 010126 0 0
221 16046 0 0
221 210644 0 0
221 35968 0 0
222 010126 0 0
222 110126 0 0
222 210644 0 0
222 35958 0 0
223 05638 0 0
223 110126 0 0
223 210644 0 0
223 35968 0 0
224 010644 0 0
224 110644 0 0
224 210644 0 0
224 310126 0 0
225 010644 0 0
225 15706 0 0
225 213578 0 0
225 313578 0 0
226 010644 0 0
226 110644 0 0
226 210126 0 0
226 313578 0 0
227 010644 0 0
227 110644 0 0
227 210644 0 0
227 310644 0 0
228 010126 0 0
228 110126 0 0
228 210126 0 0
228 313578 0 0
229 010126 0 0
229 110126 0 0
229 210644 0 0
229 312796 0 0
230 010644 0 0
230 110644 0 0
230 212796 0 0
230 313578 0 0
231 010644 0 0
231 110644 0 0
231 210644 0 0
231 35968 0 0
232 010126 0 0
232 110644 0 0
232 210644 0 0
232 313578 0 0
233 010644 0 0
233 112796 0 0
233 213076 0 0
233 313578 0 0
234 010644 0 0
234 110644 0 0
234 213578 0 0
234 313578 0 0
235 010644 0 0
235 15968 0 0
235 25968 0 0
235 310126 0 0
236 010644 0 0
236 110126 0 0
236 210126 0 0
236 313076 0 0
237 010126 0 0
237 110126 0 0
237 210644 0 0
237 310126 0 0
238 010126 0 0
238 110644 0 0
238 210126 0 0
238 313578 0 0
239 010126 0 0
239 110644 0 0
239 210644 0 0
239 35958 0 0
240 010126 0 0
240 15958 0 0
240 210644 0 0
240 310644 0 0
241 010126 0 0
241 112796 0 0
241 212796 0 0
241 313578 0 0
242 010126 0 0
242 110644 0 0
242 210644 0 0
242 310644 0 0
243 010126 0 0
243 110126 0 0
243 210644 0 0
243 35958 0 0
244 05536 0 0
244 15968 0 0
244 210126 0 0
244 310644 0 0
245 010126 0 0
245 110644 0 0
245 210126 0 0
245 312796 0 0
246 010126 0 0
246 110644 0 0
246 210126 0 0
246 313076 0 0
247 010644 0 0
247 110644 0 0
247 210126 0 0
247 35968 0 0
248 010126 0 0
248 110644 0 0
248 212796 0 0
248 313578 0 0
249 010126 0 0
249 110644 0 0
249 210126 0 0
249 310644 0 0
250 010126 0 0
250 15544 0 0
250 210644 0 0
250 312796 0 0
251 010126 0 0
251 110126 0 0
251 210644 0 0
251 310644 0 0
252 010126 0 0
252 15958 0 0
252 210644 0 0
252 312796 0 0
253 05958 0 0
253 110644 0 0
253 210126 0 0
253 35958 0 0
254 010644 0 0
254 110126 0 0
254 210644 0 0
254 313578 0 0
255 010126 0 0
255 110644 0 0
255 212796 0 0
255 312796 0 0
256 010112 0 0
256 113578 1 0
256 25866 0 0
256 310644 0 0
257 110126 0 0
257 210126 0 0
257 310126 0 0
258 010126 0 0
258 110126 0 0
258 25958 0 0
258 313578 0 0
259 010126 0 0
259 110126 0 0
259 35968 1 0
260 010126 0 0
260 110644 0 0
260 210126 0 0
260 313578 0 0
261 010126 0 0
261 110126 0 0
261 210644 0 0
261 313578 2 0
262 010126 0 0
262 110126 0 0
262 25958 0 0
262 312796 0 0
263 010112 0 0
263 110126 0 0
263 210126 0 0
263 35958 1 0
264 010126 0 0
264 15502 0 0
264 210126 0 0
264 313578 0 0
265 010126 0 0
265 110644 0 0
265 210126 0 0
265 35968 0 0
266 05958 0 0
266 110644 0 0
266 210126 0 0
266 313578 0 0
267 05968 0 0
267 15968 2 0
267 210126 1 0
267 313578 2 0
268 010644 0 0
268 15958 0 0
268 213578 0 0
268 313578 0 0
269 010126 0 0
269 110644 0 0
269 213578 0 0
269 313578 0 0
270 012796 0 0
270 113076 0 0
270 213578 0 0
270 313578 0 0
271 010644 0 0
271 110644 0 0
271 25968 0 0
271 35958 1 0
272 05968 0 0
272 110644 0 0
272 210126 0 0
272 310644 0 0
273 110126 3 0
273 210644 0 0
273 313578 3 0
274 010112 0 0
274 110112 0 0
274 210644 0 0
274 312796 1 0
275 010126 0 0
275 110126 0 0
275 210644 0 0
275 35968 1 0
276 05968 1 0
276 110126 0 0
276 25646 0 0
276 310644 0 0
277 010112 0 0
277 110112 0 0
277 212796 0 0
277 310126 0 0
278 010126 0 0
278 15672 0 0
278 25958 2 0
278 35958 2 0
279 010112 0 0
279 110112 0 0
279 210126 0 0
279 310126 0 0
280 010126 0 0
280 15968 1 0
280 210644 0 0
280 35958 0 0
281 05958 1 0
281 110126 0 0
281 212796 0 0
281 313578 3 0
282 05958 1 0
282 110644 0 0
282 210126 0 0
282 312876 3 0
283 010644 0 0
283 15968 1 0
283 25958 1 0
283 310126 0 0
284 010126 0 0
284 110126 0 0
284 25958 2 0
284 35968 1 0
285 15958 1 0
285 213578 1 0
285 310126 1 0
286 013578 0 0
286 110112 0 0
286 210126 0 0
286 35866 1 0
287 012876 0 0
287 112796 1 0
287 213578 0 0
287 313578 0 0
288 012876 2 0
288 113578 2 0
288 213578 2 0
288 313578 2 0
289 010644 0 0
289 15958 0 0
289 25958 1 0
289 312876 0 0
290 010644 0 0
290 110112 0 0
290 25968 2 0
290 35968 1 0
291 110644 0 0
291 210126 1 0
291 310112 0 0
292 010112 0 0
292 110644 0 0
292 210112 0 0
292 310126 0 0
293 010112 0 0
293 110126 0 0
293 25968 1 0
293 35968 1 0
294 010644 0 0
294 15958 2 0
294 210644 2 0
294 312876 2 0
295 010126 0 0
295 110112 0 0
295 210126 0 0
295 35958 1 0
296 010644 0 0
296 15968 0 0
296 25544 1 0
296 312876 0 0
297 05968 1 0
297 110644 0 0
297 25544 0 0
297 312876 3 0
298 010126 0 0
298 110126 0 0
298 25958 0 0
298 312876 0 0
299 010126 0 0
299 112876 0 0
299 212796 0 0
299 313578 0 0
300 05968 0 0
300 110644 0 0
300 25968 1 0
300 310126 0 0
301 012876 0 0
301 112796 0 0
301 213076 1 0
301 313578 0 0
302 05958 0 0
302 110126 0 0
302 210126 0 0
302 35968 1 0
303 010126 0 0
303 112876 2 0
303 213578 2 0
303 313578 2 0
304 010126 0 0
304 110644 0 0
304 210644 0 0
304 312876 0 0
305 010126 0 0
305 110126 0 0
305 210126 0 0
305 35968 1 0
306 010126 0 0
306 110644 0 0
306 212876 0 0
306 313578 0 0
307 010112 0 0
307 15958 1 0
307 212796 0 0
307 35958 1 0
308 013578 1 0
308 110126 0 0
308 210112 0 0
308 313578 1 0
309 110644 0 0
309 210644 0 0
309 35968 1 0
310 010644 0 0
310 15958 0 0
310 210644 0 0
310 312876 0 0
311 010126 0 0
311 110126 0 0
311 210112 0 0
311 313578 1 0
312 110644 0 0
312 210126 0 0
312 35958 1 0
313 010644 0 0
313 110126 0 0
313 25968 0 0
313 312876 0 0
314 010126 0 0
314 110126 0 0
314 210126 0 0
314 35958 1 0
315 05958 1 0
315 110126 1 0
315 212796 0 0
315 313578 3 0
316 05958 1 0
316 110126 1 0
316 212796 0 0
316 312796 0 0
317 110126 0 0
317 210126 0 0
317 310126 0 0
318 110112 0 0
318 25958 0 0
318 310126 0 0
319 010644 0 0
319 112876 0 0
319 212796 0 0
319 313578 0 0
320 010126 0 0
320 15672 0 0
320 25958 0 0
320 310644 0 0
321 010644 0 0
321 15782 0 0
321 210644 0 0
321 312876 0 0
322 010644 0 0
322 112796 0 0
322 212876 0 0
322 313076 0 0
323 010644 0 0
323 110644 0 0
323 210644 0 0
323 312796 0 0
324 010126 0 0
324 110126 0 0
324 25958 1 0
324 310126 0 0
325 010644 0 0
325 110126 0 0
325 210126 0 0
325 312876 0 0
326 010126 0 0
326 15958 0 0
326 210126 0 0
326 310644 0 0
327 05544 0 0
327 110644 0 0
327 210644 0 0
327 312564 0 0
328 010644 0 0
328 110644 0 0
328 212796 1 0
328 312876 0 0
329 010126 0 0
329 110644 0 0
329 212876 0 0
329 313578 0 0
330 010126 0 0
330 112796 0 0
330 212876 0 0
330 313578 0 0
331 010644 0 0
331 110126 0 0
331 210644 0 0
331 312876 0 0
332 010644 0 0
332 112796 0 0
332 212876 0 0
332 313578 0 0
333 010126 0 0
333 110644 0 0
333 210126 0 0
333 312876 0 0
334 05968 0 0
334 110126 0 0
334 25510 0 0
334 310644 0 0
335 05672 0 0
335 112796 0 0
335 212796 0 0
335 312876 0 0
336 010644 0 0
336 110644 0 0
336 210644 0 0
336 312796 0 0
337 010644 0 0
337 110644 0 0
337 210644 0 0
337 312876 0 0
338 010644 0 0
338 15958 0 0
338 210644 0 0
338 312796 0 0
339 010126 0 0
339 110644 0 0
339 210644 0 0
339 312796 0 0
340 010126 0 0
340 110644 0 0
340 210126 0 0
340 310644 0 0
341 010644 0 0
341 110644 0 0
341 25958 0 0
341 312876 0 0
342 010644 0 0
342 110126 0 0
342 210644 0 0
342 312876 0 0
343 010126 0 0
343 110644 0 0
343 210644 0 0
343 310644 0 0
344 05968 0 0
344 110126 0 0
344 210644 0 0
344 312876 0 0
345 010644 0 0
345 110644 0 0
345 25968 0 0
345 312876 0 0
346 010126 0 0
346 110644 0 0
346 210644 0 0
346 312876 0 0
347 010126 0 0
347 110644 0 0
347 210644 0 0
347 310126 0 0
348 010644 0 0
348 110126 0 0
348 212796 1 0
348 312876 0 0
349 010126 0 0
349 110126 0 0
349 210644 0 0
349 35604 0 0
350 010126 0 0
350 15638 0 0
350 25968 1 0
350 312876 0 0
351 010644 0 0
351 110644 0 0
351 25968 0 0
351 312876 0 0
352 010644 0 0
352 110644 0 0
352 210644 0 0
352 35958 0 0
353 010644 0 0
353 110644 0 0
353 212796 0 0
353 312876 0 0
354 010126 0 0
354 110644 0 0
354 210126 0 0
354 310644 0 0
355 010126 0 0
355 110644 0 0
355 25510 0 0
355 310644 0 0
356 010126 0 0
356 110644 0 0
356 210644 0 0
356 35968 0 0
357 010644 0 0
357 110644 0 0
357 210644 0 0
357 312876 0 0
358 010644 0 0
358 110126 0 0
358 210644 0 0
358 312876 0 0
359 010126 0 0
359 110644 0 0
359 210644 0 0
359 312564 0 0
360 010644 0 0
360 110126 0 0
360 210644 0 0
360 312876 0 0
361 010126 0 0
361 110644 0 0
361 210644 0 0
361 312796 0 0
362 010126 0 0
362 110644 0 0
362 210644 0 0
362 310644 0 0
363 012876 0 0
363 112796 1 0
363 212876 0 0
363 313156 0 0
364 010644 0 0
364 110644 0 0
364 212876 0 0
364 312796 1 0
365 010126 0 0
365 110644 0 0
365 210644 0 0
365 310644 0 0
366 010126 0 0
366 15958 0 0
366 25714 0 0
366 310644 0 0
367 010126 0 0
367 110644 0 0
367 25544 0 0
367 312876 0 0
368 010126 0 0
368 112354 0 0
368 210644 0 0
368 310126 0 0
369 09492 0 0
369 110126 0 0
369 210644 0 0
369 310644 0 0
370 09492 0 0
370 110644 0 0
370 210644 0 0
370 310644 0 0
371 05958 0 0
371 110644 0 0
371 29492 0 0
371 310644 0 0
372 010644 0 0
372 19492 0 0
372 210644 0 0
372 310644 0 0
373 010644 0 0
373 19492 0 0
373 210644 0 0
373 310644 0 0
374 010644 0 0
374 19492 0 0
374 210644 0 0
374 312876 0 0
375 010644 0 0
375 110126 0 0
375 29492 0 0
375 312564 0 0
376 010644 0 0
376 110644 0 0
376 210644 0 0
376 39492 0 0
377 010126 0 0
377 110644 0 0
377 25958 1 0
377 310644 0 0
378 010644 0 0
378 110644 0 0
378 210644 0 0
378 310644 0 0
379 010644 0 0
379 110126 0 0
379 25544 0 0
379 310644 0 0
380 010644 0 0
380 110644 0 0
380 29492 0 0
380 312876 0 0
381 010126 0 0
381 110644 0 0
381 210644 0 0
381 39492 0 0
382 010126 0 0
382 110644 0 0
382 210644 0 0
382 35968 0 0
383 010126 0 0
383 15638 0 0
383 210644 0 0
383 310644 0 0
384 010126 0 0
384 110644 0 0
384 210112 0 0
384 310126 0 0
385 010112 0 0
385 110126 0 0
385 25968 0 0
385 310644 0 0
386 010644 0 0
386 110112 0 0
386 210126 0 0
386 310126 0 0
387 110126 0 0
387 210126 0 0
387 310644 0 0
388 010112 0 0
388 110126 0 0
388 210644 0 0
388 310126 0 0
389 010644 0 0
389 110112 0 0
389 210126 0 0
389 310644 0 0
390 010644 0 0
390 110112 0 0
390 210126 0 0
390 35502 0 0
391 010126 0 0
391 110112 0 0
391 25958 0 0
391 310644 0 0
392 010112 0 0
392 110126 0 0
392 210644 0 0
392 35958 0 0
393 010112 0 0
393 110126 0 0
393 25958 0 0
393 312876 0 0
394 010126 0 0
394 110644 0 0
394 210112 0 0
394 310126 0 0
395 010112 0 0
395 110644 0 0
395 25968 0 0
395 35646 0 0
396 010126 0 0
396 110126 0 0
396 210112 0 0
396 310126 0 0
397 09908 0 0
397 15958 1 0
397 210644 0 0
397 310126 0 0
398 010126 0 0
398 110126 0 0
398 210112 0 0
398 310126 0 0
399 010126 0 0
399 110112 0 0
399 210126 0 0
399 310126 0 0
400 010126 0 0
400 110112 0 0
400 210126 0 0
400 310644 0 0
401 010126 0 0
401 110112 0 0
401 210126 0 0
401 310644 0 0
402 010126 0 0
402 110112 0 0
402 210126 0 0
402 310644 0 0
403 010644 0 0
403 110126 0 0
403 210112 0 0
403 310126 0 0
404 010644 0 0
404 110112 0 0
404 210126 0 0
404 35958 0 0
405 010112 0 0
405 15672 0 0
405 210644 0 0
405 310644 0 0
406 010126 0 0
406 110126 0 0
406 210126 0 0
406 310112 0 0
407 010112 0 0
407 15958 1 0
407 210126 0 0
407 310126 0 0
408 010126 0 0
408 110126 0 0
408 210112 0 0
408 310126 0 0
409 010126 0 0
409 110112 0 0
409 210126 0 0
409 35958 0 0
410 05958 0 0
410 110126 0 0
410 210644 0 0
410 310112 0 0
411 010644 0 0
411 110112 0 0
411 210644 0 0
411 35958 0 0
412 010126 0 0
412 110112 0 0
412 210126 0 0
412 310126 0 0
413 010126 0 0
413 110112 0 0
413 210644 0 0
413 36046 1 0
414 010126 0 0
414 110644 0 0
414 210112 0 0
414 310126 0 0
415 010126 0 0
415 110112 0 0
415 210644 0 0
415 310644 0 0
416 010126 0 0
416 110126 0 0
416 210112 0 0
416 35968 0 0
417 010126 0 0
417 110644 0 0
417 210126 0 0
417 310112 0 0
418 010644 0 0
418 110126 0 0
418 210112 0 0
418 310644 0 0
419 010126 0 0
419 110112 0 0
419 213156 0 0
419 313578 0 0
420 010126 0 0
420 110112 0 0
420 210126 0 0
420 310126 0 0
421 010126 0 0
421 110112 0 0
421 210126 0 0
421 310644 0 0
422 010126 0 0
422 110644 0 0
422 210112 0 0
422 310126 0 0
423 010126 0 0
423 110126 0 0
423 210112 0 0
423 310644 0 0
424 010126 0 0
424 110112 0 0
424 210644 0 0
424 310644 0 0
425 010126 0 0
425 110644 0 0
425 210112 0 0
425 310126 0 0
426 010112 0 0
426 110126 0 0
426 210644 0 0
426 35450 0 0
427 010126 0 0
427 110126 0 0
427 210632 0 0
427 310644 0 0
428 010126 0 0
428 110632 0 0
428 25958 0 0
428 310126 0 0
429 05958 0 0
429 110126 0 0
429 210126 0 0
429 310632 0 0
430 05968 0 0
430 110126 0 0
430 210632 0 0
430 310126 0 0
431 010632 0 0
431 110644 0 0
431 210644 0 0
431 310644 0 0
432 010126 0 0
432 110126 0 0
432 210126 0 0
432 310632 0 0
433 010126 0 0
433 110126 0 0
433 210632 0 0
433 310126 0 0
434 05450 0 0
434 110126 0 0
434 210126 0 0
434 310632 0 0
435 010126 0 0
435 110126 0 0
435 210126 0 0
435 310632 0 0
436 010126 0 0
436 110126 0 0
436 210632 0 0
436 310644 0 0
437 010126 0 0
437 110632 0 0
437 210644 0 0
437 310644 0 0
438 010632 0 0
438 110126 0 0
438 210126 0 0
438 310644 0 0
439 010644 0 0
439 110632 0 0
439 210644 0 0
439 310644 0 0
440 010126 0 0
440 110644 0 0
440 210632 0 0
440 35968 0 0
441 010126 0 0
441 110632 0 0
441 25544 0 0
441 35968 0 0
442 010126 0 0
442 110632 0 0
442 25968 0 0
442 310644 0 0
443 010632 0 0
443 110126 0 0
443 210126 0 0
443 312796 0 0
444 010126 0 0
444 110632 0 0
444 210126 0 0
444 310126 0 0
445 010644 0 0
445 110632 0 0
445 210126 0 0
445 310126 0 0
446 010632 0 0
446 110126 0 0
446 210644 0 0
446 310644 0 0
447 010644 0 0
447 110632 0 0
447 210126 0 0
447 310644 0 0
448 010126 0 0
448 112758 0 0
448 213578 0 0
448 313578 0 0
449 010126 0 0
449 15968 0 0
449 212796 0 0
449 312758 0 0
450 010126 0 0
450 112796 0 0
450 212758 0 0
450 313578 0 0
451 010126 0 0
451 110126 0 0
451 25968 0 0
451 312758 0 0
452 010126 0 0
452 110126 0 0
452 212758 0 0
452 313578 0 0
453 010126 0 0
453 110126 0 0
453 25958 0 0
453 312758 0 0
454 010126 0 0
454 110126 0 0
454 210126 0 0
454 312758 0 0
455 010126 0 0
455 110126 0 0
455 210126 0 0
455 312564 0 0
456 010126 0 0
456 110126 0 0
456 210126 0 0
456 35968 0 0
457 010126 0 0
457 110126 0 0
457 212796 0 0
457 312758 0 0
458 010126 0 0
458 110126 0 0
458 210126 0 0
458 312758 0 0
459 010126 0 0
459 110126 0 0
459 210126 0 0
459 312758 0 0
460 05968 0 0
460 110126 0 0
460 210126 0 0
460 312758 0 0
461 05958 0 0
461 110126 0 0
461 210126 0 0
461 39948 0 0
462 010126 0 0
462 15958 0 0
462 210112 0 0
462 310126 0 0
463 010126 0 0
463 110126 0 0
463 210126 0 0
463 310112 0 0
464 010126 0 0
464 110126 0 0
464 210126 0 0
464 310112 0 0
465 05958 0 0
465 110126 0 0
465 210126 0 0
465 35958 1 0
466 06036 0 0
466 110126 0 0
466 25578 0 0
466 310112 0 0
467 010126 0 0
467 110126 0 0
467 210112 0 0
467 312876 0 0
468 010126 0 0
468 110112 0 0
468 212796 0 0
468 313578 0 0
469 010126 0 0
469 110112 0 0
469 210126 0 0
469 313578 0 0
470 05958 0 0
470 110126 0 0
470 25958 0 0
470 310632 0 0
471 010126 0 0
471 110632 0 0
471 212564 0 0
471 312564 0 0
472 010126 0 0
472 110126 0 0
472 210632 0 0
472 310126 0 0
473 010126 0 0
473 110632 0 0
473 212796 0 0
473 312796 0 0
474 010126 0 0
474 110126 0 0
474 25968 0 0
474 310632 0 0
475 010126 0 0
475 19908 0 0
475 25968 0 0
475 312796 0 0
476 010126 0 0
476 110632 0 0
476 212796 0 0
476 313076 0 0
477 05958 0 0
477 110126 0 0
477 25968 0 0
477 310126 0 0
478 05958 0 0
478 110632 0 0
478 210126 0 0
478 310126 0 0
479 010126 0 0
479 110126 0 0
479 210632 0 0
479 310126 0 0
480 05958 0 0
480 15646 0 0
480 210126 0 0
480 310632 0 0
481 010126 0 0
481 110644 0 0
481 210632 0 0
481 312796 0 0
482 010126 0 0
482 110632 0 0
482 212796 0 0
482 313578 0 0
483 05968 0 0
483 110632 0 0
483 210126 0 0
483 310126 0 0
484 05958 0 0
484 15958 0 0
484 210126 0 0
484 310632 0 0
485 010126 0 0
485 110632 0 0
485 210126 1 0
485 310126 0 0
486 010126 0 0
486 110632 0 0
486 210126 0 0
486 312796 0 0
487 010126 0 0
487 110126 0 0
487 210632 0 0
487 310126 0 0
488 010126 0 0
488 110126 0 0
488 210632 0 0
488 35638 0 0
489 05510 0 0
489 110126 0 0
489 25458 0 0
489 39936 0 0
490 010126 0 0
490 110126 0 0
490 212876 0 0
490 312758 0 0
491 05968 0 0
491 110126 0 0
491 212876 0 0
491 312758 0 0
492 010126 0 0
492 110126 0 0
492 210126 0 0
492 312876 0 0
493 010126 0 0
493 110126 0 0
493 210126 0 0
493 312876 0 0
494 010126 0 0
494 110126 0 0
494 210126 0 0
494 312876 0 0
495 05824 0 0
495 110126 0 0
495 210126 0 0
495 312876 0 0
496 010126 0 0
496 110126 0 0
496 212876 0 0
496 312758 0 0
497 05968 0 0
497 110126 0 0
497 25824 0 0
497 312876 0 0
498 010126 0 0
498 110126 0 0
498 212876 0 0
498 312796 0 0
499 010126 0 0
499 110126 0 0
499 210126 0 0
499 312876 0 0
500 010126 0 0
500 110126 0 0
500 210126 0 0
500 312876 0 0
501 010126 0 0
501 110126 0 0
501 25968 0 0
501 312876 0 0
502 010126 0 0
502 112876 0 0
502 212796 0 0
502 312758 0 0
503 010126 0 0
503 110126 0 0
503 212564 0 0
503 312564 0 0
504 010644 0 0
504 110644 0 0
504 210126 0 0
504 312876 0 0
505 010126 0 0
505 112796 0 0
505 212876 0 0
505 312758 0 0
506 010126 0 0
506 19948 0 0
506 210126 0 0
506 312876 0 0
507 010126 0 0
507 110112 0 0
507 212796 0 0
507 312876 0 0
508 05458 0 0
508 110126 0 0
508 210112 0 0
508 312876 0 0
509 010112 0 0
509 112796 0 0
509 212796 0 0
509 312876 0 0
510 010126 0 0
510 19908 0 0
510 210126 0 0
510 312876 0 0
511 010126 0 0
511 110632 0 0
511 212876 0 0
511 313578 0 0
0 0 0 4 3 3 2 70 
